801
     RDKit          2D

 36 38  0  0  0  0  0  0  0  0999 V2000
    4.0267   -2.3989    0.0000 Cl  0  0  0  0  0  0  0  0  0  0  0  0
    2.8159    2.2807    0.0000 F   0  0  0  0  0  0  0  0  0  0  0  0
    1.6936    1.0712    0.0000 F   0  0  0  0  0  0  0  0  0  0  0  0
    1.6500    2.2371    0.0000 F   0  0  0  0  0  0  0  0  0  0  0  0
    4.2399    2.3989    0.0000 O   0  0  0  0  0  0  0  0  0  0  0  0
    3.6638    0.9312    0.0000 N   0  0  0  0  0  0  0  0  0  0  0  0
    5.5176    0.9312    0.0000 N   0  0  0  0  0  0  0  0  0  0  0  0
    3.8475    0.1269    0.0000 C   0  0  0  0  0  0  0  0  0  0  0  0
    4.5907   -0.2311    0.0000 C   0  0  0  0  0  0  0  0  0  0  0  0
    2.8595    1.1148    0.0000 C   0  0  0  0  0  0  0  0  0  0  0  0
    5.3340    0.1269    0.0000 C   0  0  0  0  0  0  0  0  0  0  0  0
    4.1782    1.5762    0.0000 C   0  0  0  0  0  0  0  0  0  0  0  0
    5.0032    1.5762    0.0000 C   0  0  0  0  0  0  0  0  0  0  0  0
    3.1301   -0.3462    0.0000 C   0  0  0  0  0  0  0  0  0  0  0  0
    4.6682   -1.0869    0.0000 C   0  0  0  0  0  0  0  0  0  0  0  0
    5.9790   -0.3875    0.0000 C   0  0  0  0  0  0  0  0  0  0  0  0
    2.2548    1.6759    0.0000 C   0  0  0  0  0  0  0  0  0  0  0  0
    3.1876   -1.2036    0.0000 C   0  0  0  0  0  0  0  0  0  0  0  0
    3.9619   -1.5765    0.0000 C   0  0  0  0  0  0  0  0  0  0  0  0
    6.7470   -0.0860    0.0000 C   0  0  0  0  0  0  0  0  0  0  0  0
    5.8561   -1.2033    0.0000 C   0  0  0  0  0  0  0  0  0  0  0  0
    7.3920   -0.6004    0.0000 C   0  0  0  0  0  0  0  0  0  0  0  0
    6.5011   -1.7176    0.0000 C   0  0  0  0  0  0  0  0  0  0  0  0
    7.2691   -1.4163    0.0000 C   0  0  0  0  0  0  0  0  0  0  0  0
    0.0000    0.0000    0.0000 H   0  0  0  0  0  0  0  0  0  0  0  0
    0.0000    0.0000    0.0000 H   0  0  0  0  0  0  0  0  0  0  0  0
    0.0000    0.0000    0.0000 H   0  0  0  0  0  0  0  0  0  0  0  0
    0.0000    0.0000    0.0000 H   0  0  0  0  0  0  0  0  0  0  0  0
    0.0000    0.0000    0.0000 H   0  0  0  0  0  0  0  0  0  0  0  0
    0.0000    0.0000    0.0000 H   0  0  0  0  0  0  0  0  0  0  0  0
    0.0000    0.0000    0.0000 H   0  0  0  0  0  0  0  0  0  0  0  0
    0.0000    0.0000    0.0000 H   0  0  0  0  0  0  0  0  0  0  0  0
    0.0000    0.0000    0.0000 H   0  0  0  0  0  0  0  0  0  0  0  0
    0.0000    0.0000    0.0000 H   0  0  0  0  0  0  0  0  0  0  0  0
    0.0000    0.0000    0.0000 H   0  0  0  0  0  0  0  0  0  0  0  0
    0.0000    0.0000    0.0000 H   0  0  0  0  0  0  0  0  0  0  0  0
  1 19  1  0
  2 17  1  0
  3 17  1  0
  4 17  1  0
  5 12  2  0
  6  8  1  0
  6 10  1  0
  6 12  1  0
  7 11  2  0
  7 13  1  0
  8  9  2  0
  8 14  1  0
  9 11  1  0
  9 15  1  0
 10 17  1  0
 11 16  1  0
 12 13  1  0
 14 18  2  0
 15 19  2  0
 16 20  2  0
 16 21  1  0
 18 19  1  0
 20 22  1  0
 21 23  2  0
 22 24  2  0
 23 24  1  0
 10 25  1  0
 10 26  1  0
 13 27  1  0
 13 28  1  0
 14 29  1  0
 15 30  1  0
 18 31  1  0
 20 32  1  0
 21 33  1  0
 22 34  1  0
 23 35  1  0
 24 36  1  0
M  END
>  <ALOGPS_LOGP>  (1) 
3.52

>  <ALOGPS_LOGS>  (1) 
-5.32

>  <ALOGPS_SOLUBILITY>  (1) 
1.70e-03 g/l

>  <DATABASE_ID>  (1) 
DB00801

>  <DATABASE_NAME>  (1) 
drugbank

>  <DRUGBANK_ID>  (1) 
DB00801

>  <DRUG_GROUPS>  (1) 
approved; illicit; withdrawn

>  <EXACT_MASS>  (1) 
352.059025338

>  <FORMULA>  (1) 
C17H12ClF3N2O

>  <GENERIC_NAME>  (1) 
Halazepam

>  <INCHI_IDENTIFIER>  (1) 
InChI=1S/C17H12ClF3N2O/c18-12-6-7-14-13(8-12)16(11-4-2-1-3-5-11)22-9-15(24)23(14)10-17(19,20)21/h1-8H,9-10H2

>  <INCHI_KEY>  (1) 
WYCLKVQLVUQKNZ-UHFFFAOYSA-N

>  <INTERNATIONAL_BRANDS>  (1) 
Alapryl; Pacinone; Paxipam

>  <JCHEM_ACCEPTOR_COUNT>  (1) 
2

>  <JCHEM_AVERAGE_POLARIZABILITY>  (1) 
31.824300722372104

>  <JCHEM_BIOAVAILABILITY>  (1) 
1

>  <JCHEM_DONOR_COUNT>  (1) 
0

>  <JCHEM_FORMAL_CHARGE>  (1) 
0

>  <JCHEM_GHOSE_FILTER>  (1) 
1

>  <JCHEM_IUPAC>  (1) 
7-chloro-5-phenyl-1-(2,2,2-trifluoroethyl)-2,3-dihydro-1H-1,4-benzodiazepin-2-one

>  <JCHEM_LOGP>  (1) 
4.0311828043333335

>  <JCHEM_MDDR_LIKE_RULE>  (1) 
0

>  <JCHEM_NUMBER_OF_RINGS>  (1) 
3

>  <JCHEM_PHYSIOLOGICAL_CHARGE>  (1) 
0

>  <JCHEM_PKA_STRONGEST_ACIDIC>  (1) 
18.878327984730664

>  <JCHEM_PKA_STRONGEST_BASIC>  (1) 
2.3251494399058754

>  <JCHEM_POLAR_SURFACE_AREA>  (1) 
32.67

>  <JCHEM_REFRACTIVITY>  (1) 
85.26200000000001

>  <JCHEM_ROTATABLE_BOND_COUNT>  (1) 
3

>  <JCHEM_RULE_OF_FIVE>  (1) 
1

>  <JCHEM_TRADITIONAL_IUPAC>  (1) 
halazepam

>  <JCHEM_VEBER_RULE>  (1) 
1

>  <MOLECULAR_WEIGHT>  (1) 
352.738

>  <SECONDARY_ACCESSION_NUMBERS>  (1) 
APRD01009

>  <SMILES>  (1) 
FC(F)(F)CN1C2=C(C=C(Cl)C=C2)C(=NCC1=O)C1=CC=CC=C1

>  <SYNONYMS>  (1) 
Halaz√©pam; Halazepam; Halazepamum

$$$$
