
     RDKit          2D

 94 97  0  0  0  0  0  0  0  0999 V2000
    0.5336   -1.0159    0.0000 C   0  0  0  0  0  0  0  0  0  0  0  0
    4.0613   -1.4545    0.0000 O   0  0  0  0  0  0  0  0  0  0  0  0
   -3.0429    0.2070    0.0000 C   0  0  0  0  0  0  0  0  0  0  0  0
   -3.4571   -0.5092    0.0000 C   0  0  0  0  0  0  0  0  0  0  0  0
    3.3500   -1.0306    0.0000 C   0  0  0  0  0  0  0  0  0  0  0  0
   -4.2806   -0.5092    0.0000 C   0  0  0  0  0  0  0  0  0  0  0  0
   -0.8892   -1.8442    0.0000 C   0  0  0  0  0  0  0  0  0  0  0  0
    4.0712   -0.6261    0.0000 C   0  0  0  0  0  0  0  0  0  0  0  0
   -0.8942   -1.0208    0.0000 C   0  0  0  0  0  0  0  0  0  0  0  0
   -3.4571    0.9233    0.0000 O   0  0  0  0  0  0  0  0  0  0  0  0
   -0.1826   -0.6066    0.0000 O   0  0  0  0  0  0  0  0  0  0  0  0
   -4.6996    0.2070    0.0000 C   0  0  0  0  0  0  0  0  0  0  0  0
   -0.1729   -2.2536    0.0000 C   0  0  0  0  0  0  0  0  0  0  0  0
    0.5383   -1.8345    0.0000 C   0  0  0  0  0  0  0  0  0  0  0  0
   -4.2806    0.9233    0.0000 C   0  0  0  0  0  0  0  0  0  0  0  0
   -1.6055   -2.2585    0.0000 C   0  0  0  0  0  0  0  0  0  0  0  0
    1.2450   -0.5969    0.0000 C   0  0  0  0  0  0  0  0  0  0  0  0
    4.0808    0.1973    0.0000 C   0  0  0  0  0  0  0  0  0  0  0  0
    4.8068    1.4252    0.0000 C   0  0  0  0  0  0  0  0  0  0  0  0
    2.6726   -0.5920    0.0000 C   0  0  0  0  0  0  0  0  0  0  0  0
   -2.3314    0.6310    0.0000 O   0  0  0  0  0  0  0  0  0  0  0  0
   -1.6103   -0.6115    0.0000 C   0  0  0  0  0  0  0  0  0  0  0  0
    4.0955    1.8442    0.0000 O   0  0  0  0  0  0  0  0  0  0  0  0
    4.8020    0.6017    0.0000 C   0  0  0  0  0  0  0  0  0  0  0  0
   -1.6103    0.2119    0.0000 C   0  0  0  0  0  0  0  0  0  0  0  0
    1.9613   -1.0062    0.0000 C   0  0  0  0  0  0  0  0  0  0  0  0
   -1.6055   -3.0868    0.0000 O   0  0  0  0  0  0  0  0  0  0  0  0
    5.5280    1.8345    0.0000 O   0  0  0  0  0  0  0  0  0  0  0  0
   -4.6948   -1.2255    0.0000 N   0  0  0  0  0  0  0  0  0  0  0  0
    0.5336    3.0868    0.0000 C   0  0  0  0  0  0  0  0  0  0  0  0
   -0.1826    2.6774    0.0000 C   0  0  0  0  0  0  0  0  0  0  0  0
   -0.1826    1.8541    0.0000 C   0  0  0  0  0  0  0  0  0  0  0  0
    1.2450    2.6774    0.0000 C   0  0  0  0  0  0  0  0  0  0  0  0
   -0.8989    1.4447    0.0000 C   0  0  0  0  0  0  0  0  0  0  0  0
    1.9613    3.0868    0.0000 C   0  0  0  0  0  0  0  0  0  0  0  0
   -0.8942    0.6212    0.0000 C   0  0  0  0  0  0  0  0  0  0  0  0
    0.5383   -0.1876    0.0000 O   0  0  0  0  0  0  0  0  0  0  0  0
   -3.0380   -1.2255    0.0000 O   0  0  0  0  0  0  0  0  0  0  0  0
    2.6726    2.6726    0.0000 C   0  0  0  0  0  0  0  0  0  0  0  0
   -5.5280    0.2070    0.0000 O   0  0  0  0  0  0  0  0  0  0  0  0
   -0.1729   -3.0820    0.0000 O   0  0  0  0  0  0  0  0  0  0  0  0
   -2.3266   -1.8491    0.0000 O   0  0  0  0  0  0  0  0  0  0  0  0
    4.1004    2.6677    0.0000 C   0  0  0  0  0  0  0  0  0  0  0  0
    1.9613   -1.8345    0.0000 O   0  0  0  0  0  0  0  0  0  0  0  0
   -4.6948    1.6445    0.0000 C   0  0  0  0  0  0  0  0  0  0  0  0
    3.3889    3.0820    0.0000 C   0  0  0  0  0  0  0  0  0  0  0  0
    4.8215    3.0770    0.0000 C   0  0  0  0  0  0  0  0  0  0  0  0
    0.0000    0.0000    0.0000 H   0  0  0  0  0  0  0  0  0  0  0  0
    0.0000    0.0000    0.0000 H   0  0  0  0  0  0  0  0  0  0  0  0
    0.0000    0.0000    0.0000 H   0  0  0  0  0  0  0  0  0  0  0  0
    0.0000    0.0000    0.0000 H   0  0  0  0  0  0  0  0  0  0  0  0
    0.0000    0.0000    0.0000 H   0  0  0  0  0  0  0  0  0  0  0  0
    0.0000    0.0000    0.0000 H   0  0  0  0  0  0  0  0  0  0  0  0
    0.0000    0.0000    0.0000 H   0  0  0  0  0  0  0  0  0  0  0  0
    0.0000    0.0000    0.0000 H   0  0  0  0  0  0  0  0  0  0  0  0
    0.0000    0.0000    0.0000 H   0  0  0  0  0  0  0  0  0  0  0  0
    0.0000    0.0000    0.0000 H   0  0  0  0  0  0  0  0  0  0  0  0
    0.0000    0.0000    0.0000 H   0  0  0  0  0  0  0  0  0  0  0  0
    0.0000    0.0000    0.0000 H   0  0  0  0  0  0  0  0  0  0  0  0
    0.0000    0.0000    0.0000 H   0  0  0  0  0  0  0  0  0  0  0  0
    0.0000    0.0000    0.0000 H   0  0  0  0  0  0  0  0  0  0  0  0
    0.0000    0.0000    0.0000 H   0  0  0  0  0  0  0  0  0  0  0  0
    0.0000    0.0000    0.0000 H   0  0  0  0  0  0  0  0  0  0  0  0
    0.0000    0.0000    0.0000 H   0  0  0  0  0  0  0  0  0  0  0  0
    0.0000    0.0000    0.0000 H   0  0  0  0  0  0  0  0  0  0  0  0
    0.0000    0.0000    0.0000 H   0  0  0  0  0  0  0  0  0  0  0  0
    0.0000    0.0000    0.0000 H   0  0  0  0  0  0  0  0  0  0  0  0
    0.0000    0.0000    0.0000 H   0  0  0  0  0  0  0  0  0  0  0  0
    0.0000    0.0000    0.0000 H   0  0  0  0  0  0  0  0  0  0  0  0
    0.0000    0.0000    0.0000 H   0  0  0  0  0  0  0  0  0  0  0  0
    0.0000    0.0000    0.0000 H   0  0  0  0  0  0  0  0  0  0  0  0
    0.0000    0.0000    0.0000 H   0  0  0  0  0  0  0  0  0  0  0  0
    0.0000    0.0000    0.0000 H   0  0  0  0  0  0  0  0  0  0  0  0
    0.0000    0.0000    0.0000 H   0  0  0  0  0  0  0  0  0  0  0  0
    0.0000    0.0000    0.0000 H   0  0  0  0  0  0  0  0  0  0  0  0
    0.0000    0.0000    0.0000 H   0  0  0  0  0  0  0  0  0  0  0  0
    0.0000    0.0000    0.0000 H   0  0  0  0  0  0  0  0  0  0  0  0
    0.0000    0.0000    0.0000 H   0  0  0  0  0  0  0  0  0  0  0  0
    0.0000    0.0000    0.0000 H   0  0  0  0  0  0  0  0  0  0  0  0
    0.0000    0.0000    0.0000 H   0  0  0  0  0  0  0  0  0  0  0  0
    0.0000    0.0000    0.0000 H   0  0  0  0  0  0  0  0  0  0  0  0
    0.0000    0.0000    0.0000 H   0  0  0  0  0  0  0  0  0  0  0  0
    0.0000    0.0000    0.0000 H   0  0  0  0  0  0  0  0  0  0  0  0
    0.0000    0.0000    0.0000 H   0  0  0  0  0  0  0  0  0  0  0  0
    0.0000    0.0000    0.0000 H   0  0  0  0  0  0  0  0  0  0  0  0
    0.0000    0.0000    0.0000 H   0  0  0  0  0  0  0  0  0  0  0  0
    0.0000    0.0000    0.0000 H   0  0  0  0  0  0  0  0  0  0  0  0
    0.0000    0.0000    0.0000 H   0  0  0  0  0  0  0  0  0  0  0  0
    0.0000    0.0000    0.0000 H   0  0  0  0  0  0  0  0  0  0  0  0
    0.0000    0.0000    0.0000 H   0  0  0  0  0  0  0  0  0  0  0  0
    0.0000    0.0000    0.0000 H   0  0  0  0  0  0  0  0  0  0  0  0
    0.0000    0.0000    0.0000 H   0  0  0  0  0  0  0  0  0  0  0  0
    0.0000    0.0000    0.0000 H   0  0  0  0  0  0  0  0  0  0  0  0
    0.0000    0.0000    0.0000 H   0  0  0  0  0  0  0  0  0  0  0  0
  2  5  1  0
  3 21  1  1
  4  3  1  0
  5 20  1  0
  6  4  1  0
  7 13  1  0
  8  5  1  0
  9 11  1  0
 10  3  1  0
 11  1  1  0
 12 15  1  0
 13 14  1  0
 14  1  1  0
 15 10  1  0
  7 16  1  6
 17  1  1  0
 18  8  1  0
 19 24  1  0
 20 26  1  0
 25 21  1  6
 22  9  1  0
 23 19  1  0
 24 18  2  0
 25 22  1  0
 26 17  1  0
 27 16  2  0
 28 19  2  0
  6 29  1  6
 30 31  1  0
 31 32  2  0
 32 34  1  0
 33 30  2  0
 34 36  2  0
 35 33  1  0
 36 25  1  0
  1 37  1  1
  4 38  1  1
 39 35  2  0
 12 40  1  1
 13 41  1  1
 42 16  1  0
 43 23  1  0
 26 44  1  6
 15 45  1  6
 46 43  1  0
 43 47  1  6
  7  9  1  0
  2  8  1  0
 12  6  1  0
 39 46  1  0
  3 48  1  0
  4 49  1  0
  5 50  1  1
  6 51  1  0
  7 52  1  0
  8 53  1  6
  9 54  1  1
 12 55  1  0
 13 56  1  0
 14 57  1  0
 14 58  1  0
 15 59  1  0
 17 60  1  0
 17 61  1  0
 18 62  1  0
 20 63  1  0
 20 64  1  0
 22 65  1  0
 22 66  1  0
 24 67  1  0
 25 68  1  0
 26 69  1  0
 29 70  1  0
 29 71  1  0
 30 72  1  0
 31 73  1  0
 32 74  1  0
 33 75  1  0
 34 76  1  0
 35 77  1  0
 36 78  1  0
 37 79  1  0
 38 80  1  0
 39 81  1  0
 40 82  1  0
 41 83  1  0
 42 84  1  0
 43 85  1  0
 44 86  1  0
 45 87  1  0
 45 88  1  0
 45 89  1  0
 46 90  1  0
 46 91  1  0
 47 92  1  0
 47 93  1  0
 47 94  1  0
M  END
>  <ALOGPS_LOGP>  (1) 
-3.46

>  <ALOGPS_LOGS>  (1) 
-3.38

>  <ALOGPS_SOLUBILITY>  (1) 
2.78e-01 g/l

>  <DATABASE_ID>  (1) 
DB00826

>  <DATABASE_NAME>  (1) 
drugbank

>  <DRUGBANK_ID>  (1) 
DB00826

>  <DRUG_GROUPS>  (1) 
approved

>  <EXACT_MASS>  (1) 
665.304740577

>  <FORMULA>  (1) 
C33H47NO13

>  <GENERIC_NAME>  (1) 
Natamycin

>  <INCHI_IDENTIFIER>  (1) 
InChI=1S/C33H47NO13/c1-18-10-8-6-4-3-5-7-9-11-21(45-32-30(39)28(34)29(38)19(2)44-32)15-25-27(31(40)41)22(36)17-33(42,47-25)16-20(35)14-24-23(46-24)12-13-26(37)43-18/h3-9,11-13,18-25,27-30,32,35-36,38-39,42H,10,14-17,34H2,1-2H3,(H,40,41)/b4-3+,7-5+,8-6+,11-9+,13-12+/t18-,19-,20+,21+,22+,23-,24-,25+,27-,28+,29-,30+,32+,33-/m1/s1

>  <INCHI_KEY>  (1) 
NCXMLFZGDNKEPB-FFPOYIOWSA-N

>  <INTERNATIONAL_BRANDS>  (1) 
Delvocid; Fukricin; InfectoMyk; N-Mycin; Natadrops; Natamet; Natamycyna; Natezhen; Natoph; Natoptic; Optinat; Pimafucin; Pimafusin; Pimaricin

>  <JCHEM_ACCEPTOR_COUNT>  (1) 
13

>  <JCHEM_ATOM_COUNT>  (1) 
94

>  <JCHEM_AVERAGE_POLARIZABILITY>  (1) 
68.57872875871091

>  <JCHEM_BIOAVAILABILITY>  (1) 
0

>  <JCHEM_DONOR_COUNT>  (1) 
7

>  <JCHEM_FORMAL_CHARGE>  (1) 
0

>  <JCHEM_GHOSE_FILTER>  (1) 
0

>  <JCHEM_IUPAC>  (1) 
(1R,3S,5R,7R,8E,12R,14E,16E,18E,20E,22R,24S,25R,26S)-22-{[(2R,3S,4S,5S,6R)-4-amino-3,5-dihydroxy-6-methyloxan-2-yl]oxy}-1,3,26-trihydroxy-12-methyl-10-oxo-6,11,28-trioxatricyclo[22.3.1.0âµ,â·]octacosa-8,14,16,18,20-pentaene-25-carboxylic acid

>  <JCHEM_LOGP>  (1) 
-1.694913093638562

>  <JCHEM_MDDR_LIKE_RULE>  (1) 
0

>  <JCHEM_NUMBER_OF_RINGS>  (1) 
4

>  <JCHEM_PHYSIOLOGICAL_CHARGE>  (1) 
0

>  <JCHEM_PKA>  (1) 
11.830297037788116

>  <JCHEM_PKA_STRONGEST_ACIDIC>  (1) 
3.579739281946898

>  <JCHEM_PKA_STRONGEST_BASIC>  (1) 
9.113107009890703

>  <JCHEM_POLAR_SURFACE_AREA>  (1) 
230.98999999999995

>  <JCHEM_REFRACTIVITY>  (1) 
169.88260000000005

>  <JCHEM_ROTATABLE_BOND_COUNT>  (1) 
3

>  <JCHEM_RULE_OF_FIVE>  (1) 
0

>  <JCHEM_TRADITIONAL_IUPAC>  (1) 
natamycin

>  <JCHEM_VEBER_RULE>  (1) 
0

>  <MOLECULAR_WEIGHT>  (1) 
665.733

>  <PRODUCTS>  (1) 
Natacyn

>  <SECONDARY_ACCESSION_NUMBERS>  (1) 
APRD01136

>  <SMILES>  (1) 
[H][C@@]12C[C@H](O)C[C@]3(O)C[C@H](O)[C@@H](C(O)=O)[C@]([H])(C[C@@H](O[C@]4([H])O[C@H](C)[C@@H](O)[C@H](N)[C@@H]4O)\C=C\C=C\C=C\C=C\C[C@@H](C)OC(=O)\C=C\[C@@]1([H])O2)O3

>  <SYNONYMS>  (1) 
Natamicina; Natamycin; Natamycine; Natamycinum; Pimaracin; Pimaricin

$$$$
