 
     RDKit          2D

 48 50  0  0  1  0  0  0  0  0999 V2000
   17.5264  -10.4991    0.0000 C   0  0  0  0  0  0  0  0  0  0  0  0
   17.5264   -9.7044    0.0000 C   0  0  0  0  0  0  0  0  0  0  0  0
   18.2793  -10.9174    0.0000 C   0  0  0  0  0  0  0  0  0  0  0  0
   16.8572  -10.8756    0.0000 C   0  0  0  0  0  0  0  0  0  0  0  0
   18.2793  -10.1227    0.0000 C   0  0  0  0  0  0  0  0  0  0  0  0
   16.8572   -9.3279    0.0000 C   0  0  0  0  0  0  0  0  0  0  0  0
   18.2793   -9.3279    0.0000 C   0  0  0  0  0  0  0  0  0  0  0  0
   18.9486  -10.4991    0.0000 C   0  0  0  0  0  0  0  0  0  0  0  0
   19.6179  -10.1227    0.0000 C   0  0  0  0  0  0  0  0  0  0  0  0
   16.8572   -8.5331    0.0000 C   0  0  0  0  0  0  0  0  0  0  0  0
   18.9486   -9.7462    0.0000 C   0  0  0  0  0  0  0  0  0  0  0  0
   18.2793   -8.5331    0.0000 C   0  0  0  0  0  0  0  0  0  0  0  0
   19.6179  -10.9174    0.0000 N   0  0  0  0  0  0  0  0  0  0  0  0
   17.5682   -8.1149    0.0000 C   0  0  0  0  0  0  0  0  0  0  0  0
   16.1879   -8.1149    0.0000 O   0  0  0  0  0  0  0  0  0  0  0  0
   20.4545  -10.9174    0.0000 C   0  0  0  0  0  0  0  0  0  0  0  0
   20.9146  -11.6703    0.0000 C   0  0  0  0  0  0  0  0  0  0  0  0
   18.2793  -11.7958    0.0000 C   0  0  0  0  0  0  0  0  0  0  0  0
   21.7512  -11.6703    0.0000 C   0  0  0  0  0  0  0  0  0  0  0  0
   22.1695  -12.4233    0.0000 C   0  0  0  0  0  0  0  0  0  0  0  0
   22.1695  -10.9174    0.0000 C   0  0  0  0  0  0  0  0  0  0  0  0
    0.0000    0.0000    0.0000 H   0  0  0  0  0  0  0  0  0  0  0  0
    0.0000    0.0000    0.0000 H   0  0  0  0  0  0  0  0  0  0  0  0
    0.0000    0.0000    0.0000 H   0  0  0  0  0  0  0  0  0  0  0  0
    0.0000    0.0000    0.0000 H   0  0  0  0  0  0  0  0  0  0  0  0
    0.0000    0.0000    0.0000 H   0  0  0  0  0  0  0  0  0  0  0  0
    0.0000    0.0000    0.0000 H   0  0  0  0  0  0  0  0  0  0  0  0
    0.0000    0.0000    0.0000 H   0  0  0  0  0  0  0  0  0  0  0  0
    0.0000    0.0000    0.0000 H   0  0  0  0  0  0  0  0  0  0  0  0
    0.0000    0.0000    0.0000 H   0  0  0  0  0  0  0  0  0  0  0  0
    0.0000    0.0000    0.0000 H   0  0  0  0  0  0  0  0  0  0  0  0
    0.0000    0.0000    0.0000 H   0  0  0  0  0  0  0  0  0  0  0  0
    0.0000    0.0000    0.0000 H   0  0  0  0  0  0  0  0  0  0  0  0
    0.0000    0.0000    0.0000 H   0  0  0  0  0  0  0  0  0  0  0  0
    0.0000    0.0000    0.0000 H   0  0  0  0  0  0  0  0  0  0  0  0
    0.0000    0.0000    0.0000 H   0  0  0  0  0  0  0  0  0  0  0  0
    0.0000    0.0000    0.0000 H   0  0  0  0  0  0  0  0  0  0  0  0
    0.0000    0.0000    0.0000 H   0  0  0  0  0  0  0  0  0  0  0  0
    0.0000    0.0000    0.0000 H   0  0  0  0  0  0  0  0  0  0  0  0
    0.0000    0.0000    0.0000 H   0  0  0  0  0  0  0  0  0  0  0  0
    0.0000    0.0000    0.0000 H   0  0  0  0  0  0  0  0  0  0  0  0
    0.0000    0.0000    0.0000 H   0  0  0  0  0  0  0  0  0  0  0  0
    0.0000    0.0000    0.0000 H   0  0  0  0  0  0  0  0  0  0  0  0
    0.0000    0.0000    0.0000 H   0  0  0  0  0  0  0  0  0  0  0  0
    0.0000    0.0000    0.0000 H   0  0  0  0  0  0  0  0  0  0  0  0
    0.0000    0.0000    0.0000 H   0  0  0  0  0  0  0  0  0  0  0  0
    0.0000    0.0000    0.0000 H   0  0  0  0  0  0  0  0  0  0  0  0
    0.0000    0.0000    0.0000 H   0  0  0  0  0  0  0  0  0  0  0  0
  1  2  1  0
  1  3  1  0
  1  4  1  1
  1  5  1  0
  2  6  1  0
  2  7  2  0
  3  8  1  0
  5  9  1  0
  6 10  2  0
  7 11  1  0
  7 12  1  0
  8 13  1  0
 10 14  1  0
 10 15  1  0
  8 11  1  0
  9 13  1  0
 12 14  2  0
 13 16  1  0
 16 17  1  0
  3 18  1  1
 17 19  2  3
 19 20  1  0
 19 21  1  0
  3 22  1  0
  4 23  1  0
  4 24  1  0
  4 25  1  0
  5 26  1  0
  5 27  1  0
  6 28  1  0
  8 29  1  6
  9 30  1  0
  9 31  1  0
 11 32  1  0
 11 33  1  0
 12 34  1  0
 14 35  1  0
 15 36  1  0
 16 37  1  0
 16 38  1  0
 17 39  1  0
 18 40  1  0
 18 41  1  0
 18 42  1  0
 20 43  1  0
 20 44  1  0
 20 45  1  0
 21 46  1  0
 21 47  1  0
 21 48  1  0
M  END
>  <ALOGPS_LOGP>  (1) 
4.44

>  <ALOGPS_LOGS>  (1) 
-3.37

>  <ALOGPS_SOLUBILITY>  (1) 
1.22e-01 g/l

>  <DATABASE_ID>  (1) 
DB00652

>  <DATABASE_NAME>  (1) 
drugbank

>  <DRUGBANK_ID>  (1) 
DB00652

>  <DRUG_GROUPS>  (1) 
approved; vet_approved

>  <EXACT_MASS>  (1) 
285.209264491

>  <FORMULA>  (1) 
C19H27NO

>  <GENERIC_NAME>  (1) 
Pentazocine

>  <INCHI_IDENTIFIER>  (1) 
InChI=1S/C19H27NO/c1-13(2)7-9-20-10-8-19(4)14(3)18(20)11-15-5-6-16(21)12-17(15)19/h5-7,12,14,18,21H,8-11H2,1-4H3/t14-,18+,19+/m0/s1

>  <INCHI_KEY>  (1) 
VOKSWYLNZZRQPF-GDIGMMSISA-N

>  <INTERNATIONAL_BRANDS>  (1) 
Fortal; Fortral; Fortwin; Pangon; Pentagin; Sosegon; Stopain; Talwin PX

>  <JCHEM_ACCEPTOR_COUNT>  (1) 
2

>  <JCHEM_AVERAGE_POLARIZABILITY>  (1) 
33.86191659961722

>  <JCHEM_BIOAVAILABILITY>  (1) 
1

>  <JCHEM_DONOR_COUNT>  (1) 
1

>  <JCHEM_FORMAL_CHARGE>  (1) 
0

>  <JCHEM_GHOSE_FILTER>  (1) 
1

>  <JCHEM_IUPAC>  (1) 
(1R,9R,13R)-1,13-dimethyl-10-(3-methylbut-2-en-1-yl)-10-azatricyclo[7.3.1.0Â²,â·]trideca-2,4,6-trien-4-ol

>  <JCHEM_LOGP>  (1) 
3.8936200460770922

>  <JCHEM_MDDR_LIKE_RULE>  (1) 
0

>  <JCHEM_NUMBER_OF_RINGS>  (1) 
3

>  <JCHEM_PHYSIOLOGICAL_CHARGE>  (1) 
1

>  <JCHEM_PKA_STRONGEST_ACIDIC>  (1) 
7.590926857289439

>  <JCHEM_PKA_STRONGEST_BASIC>  (1) 
12.401294420402692

>  <JCHEM_POLAR_SURFACE_AREA>  (1) 
23.47

>  <JCHEM_REFRACTIVITY>  (1) 
89.7993

>  <JCHEM_ROTATABLE_BOND_COUNT>  (1) 
2

>  <JCHEM_RULE_OF_FIVE>  (1) 
1

>  <JCHEM_TRADITIONAL_IUPAC>  (1) 
pentazocine

>  <JCHEM_VEBER_RULE>  (1) 
1

>  <MOLECULAR_WEIGHT>  (1) 
285.4238

>  <PRODUCTS>  (1) 
Pentazocine HCl and Acetaminophen; Pentazocine HCl and Naloxone HCl; Pentazocine Hydrochloride and Acetaminophen; Pentazocine Hydrochloride and Naloxone Hydrochloride; Pentazocine and Naloxone; Pentazocine and naloxone; Talwin; Talwin - Liq 30mg/ml

>  <SALTS>  (1) 
Pentazocine Hydrochloride; Pentazocine Lactate

>  <SECONDARY_ACCESSION_NUMBERS>  (1) 
APRD01173

>  <SMILES>  (1) 
C[C@H]1[C@H]2CC3=CC=C(O)C=C3[C@]1(C)CCN2CC=C(C)C

>  <SYNONYMS>  (1) 
Pentazocin; Pentazocina; Pentazocine; Pentazocinum

$$$$
