
     RDKit          2D

146140  0  0  1  0  0  0  0  0999 V2000
    7.6618  -13.0410    0.0000 C   0  0  0  0  0  0  0  0  0  0  0  0
    7.6618  -13.8660    0.0000 C   0  0  0  0  0  0  0  0  0  0  0  0
    6.9472  -12.6285    0.0000 O   0  0  0  0  0  0  0  0  0  0  0  0
    6.9472  -14.2785    0.0000 C   0  0  0  0  0  0  0  0  0  0  0  0
    6.2328  -13.0410    0.0000 C   0  0  0  0  0  0  0  0  0  0  0  0
    6.2328  -13.8660    0.0000 C   0  0  0  0  0  0  0  0  0  0  0  0
    8.3762  -12.6285    0.0000 O   0  0  0  0  0  0  0  0  0  0  0  0
    8.3762  -14.2785    0.0000 N   0  0  0  0  0  0  0  0  0  0  0  0
    6.9472  -15.1035    0.0000 O   0  0  0  0  0  0  0  0  0  0  0  0
    5.5183  -14.2785    0.0000 O   0  0  0  0  0  0  0  0  0  0  0  0
    5.5183  -12.6285    0.0000 C   0  0  0  0  0  0  0  0  0  0  0  0
    4.8039  -13.0410    0.0000 O   0  0  0  0  0  0  0  0  0  0  0  0
   10.5197  -11.3910    0.0000 C   0  0  0  0  0  0  0  0  0  0  0  0
   10.5197  -12.2160    0.0000 C   0  0  0  0  0  0  0  0  0  0  0  0
    9.8052  -10.9785    0.0000 O   0  0  0  0  0  0  0  0  0  0  0  0
    9.8052  -12.6285    0.0000 C   0  0  0  0  0  0  0  0  0  0  0  0
    9.0907  -11.3910    0.0000 C   0  0  0  0  0  0  0  0  0  0  0  0
    9.0907  -12.2160    0.0000 C   0  0  0  0  0  0  0  0  0  0  0  0
   11.2341  -10.9785    0.0000 O   0  0  0  0  0  0  0  0  0  0  0  0
   11.2341  -12.6285    0.0000 O   0  0  0  0  0  0  0  0  0  0  0  0
    9.8052  -13.4535    0.0000 O   0  0  0  0  0  0  0  0  0  0  0  0
    8.3762  -10.9785    0.0000 C   0  0  0  0  0  0  0  0  0  0  0  0
    7.6618  -11.3910    0.0000 O   0  0  0  0  0  0  0  0  0  0  0  0
   13.3776   -9.7410    0.0000 C   0  0  0  0  0  0  0  0  0  0  0  0
   13.3776  -10.5660    0.0000 C   0  0  0  0  0  0  0  0  0  0  0  0
   12.6631   -9.3285    0.0000 O   0  0  0  0  0  0  0  0  0  0  0  0
   12.6631  -10.9785    0.0000 C   0  0  0  0  0  0  0  0  0  0  0  0
   11.9486   -9.7410    0.0000 C   0  0  0  0  0  0  0  0  0  0  0  0
   11.9486  -10.5660    0.0000 C   0  0  0  0  0  0  0  0  0  0  0  0
   14.0921   -9.3285    0.0000 O   0  0  0  0  0  0  0  0  0  0  0  0
   14.0921  -10.9785    0.0000 N   0  0  0  0  0  0  0  0  0  0  0  0
   12.6631  -12.0221    0.0000 O   0  0  0  0  0  0  0  0  0  0  0  0
   11.2341   -9.3285    0.0000 C   0  0  0  0  0  0  0  0  0  0  0  0
   10.5197   -9.7410    0.0000 O   0  0  0  0  0  0  0  0  0  0  0  0
   16.2355   -8.0910    0.0000 C   0  0  0  0  0  0  0  0  0  0  0  0
   16.2355   -8.9160    0.0000 C   0  0  0  0  0  0  0  0  0  0  0  0
   15.5210   -7.6785    0.0000 O   0  0  0  0  0  0  0  0  0  0  0  0
   15.5210   -9.3285    0.0000 C   0  0  0  0  0  0  0  0  0  0  0  0
   14.8065   -8.0910    0.0000 C   0  0  0  0  0  0  0  0  0  0  0  0
   14.8065   -8.9160    0.0000 C   0  0  0  0  0  0  0  0  0  0  0  0
   16.9500   -7.6785    0.0000 O   0  0  0  0  0  0  0  0  0  0  0  0
   16.9500   -9.3285    0.0000 O   0  0  0  0  0  0  0  0  0  0  0  0
   15.5210  -10.1535    0.0000 O   0  0  0  0  0  0  0  0  0  0  0  0
   14.0921   -7.6785    0.0000 C   0  0  0  0  0  0  0  0  0  0  0  0
   13.3776   -8.0910    0.0000 O   0  0  0  0  0  0  0  0  0  0  0  0
   19.0934   -6.4410    0.0000 C   0  0  0  0  0  0  0  0  0  0  0  0
   19.0934   -7.2660    0.0000 C   0  0  0  0  0  0  0  0  0  0  0  0
   18.3789   -6.0285    0.0000 O   0  0  0  0  0  0  0  0  0  0  0  0
   18.3789   -7.6785    0.0000 C   0  0  0  0  0  0  0  0  0  0  0  0
   17.6644   -6.4410    0.0000 C   0  0  0  0  0  0  0  0  0  0  0  0
   17.6644   -7.2660    0.0000 C   0  0  0  0  0  0  0  0  0  0  0  0
   19.8079   -6.0285    0.0000 O   0  0  0  0  0  0  0  0  0  0  0  0
   19.8079   -7.6785    0.0000 N   0  0  0  0  0  0  0  0  0  0  0  0
   18.3789   -8.5035    0.0000 O   0  0  0  0  0  0  0  0  0  0  0  0
   16.9500   -6.0285    0.0000 C   0  0  0  0  0  0  0  0  0  0  0  0
   16.2355   -6.4410    0.0000 O   0  0  0  0  0  0  0  0  0  0  0  0
   20.5223   -6.4410    0.0000 C   0  0  0  0  0  0  0  0  0  0  0  0
    4.0894  -12.6285    0.0000 S   0  0  0  0  0  0  0  0  0  0  0  0
    3.6769  -13.3430    0.0000 O   0  0  0  0  0  0  0  0  0  0  0  0
    4.5019  -11.9140    0.0000 O   0  0  0  0  0  0  0  0  0  0  0  0
    3.3749  -12.2160    0.0000 O   0  0  0  0  0  0  0  0  0  0  0  0
    8.3762  -15.1035    0.0000 S   0  0  0  0  0  0  0  0  0  0  0  0
    9.2012  -15.1035    0.0000 O   0  0  0  0  0  0  0  0  0  0  0  0
    7.7301  -15.1035    0.0000 O   0  0  0  0  0  0  0  0  0  0  0  0
    8.3762  -15.9285    0.0000 O   0  0  0  0  0  0  0  0  0  0  0  0
    9.8052   -9.3285    0.0000 S   0  0  0  0  0  0  0  0  0  0  0  0
    9.3927  -10.0429    0.0000 O   0  0  0  0  0  0  0  0  0  0  0  0
   10.2177   -8.6140    0.0000 O   0  0  0  0  0  0  0  0  0  0  0  0
    9.0908   -8.9160    0.0000 O   0  0  0  0  0  0  0  0  0  0  0  0
   14.0921  -11.8035    0.0000 S   0  0  0  0  0  0  0  0  0  0  0  0
   14.9171  -11.8035    0.0000 O   0  0  0  0  0  0  0  0  0  0  0  0
   13.3863  -11.8035    0.0000 O   0  0  0  0  0  0  0  0  0  0  0  0
   14.0921  -12.6285    0.0000 O   0  0  0  0  0  0  0  0  0  0  0  0
   15.5210   -6.0285    0.0000 S   0  0  0  0  0  0  0  0  0  0  0  0
   15.1085   -6.7429    0.0000 O   0  0  0  0  0  0  0  0  0  0  0  0
   15.9335   -5.3140    0.0000 O   0  0  0  0  0  0  0  0  0  0  0  0
   14.8065   -5.6160    0.0000 O   0  0  0  0  0  0  0  0  0  0  0  0
   19.8079   -8.5035    0.0000 S   0  0  0  0  0  0  0  0  0  0  0  0
   20.6329   -8.5035    0.0000 O   0  0  0  0  0  0  0  0  0  0  0  0
   19.1121   -8.5035    0.0000 O   0  0  0  0  0  0  0  0  0  0  0  0
   19.8078   -9.3285    0.0000 O   0  0  0  0  0  0  0  0  0  0  0  0
   16.9500  -10.1535    0.0000 S   0  0  0  0  0  0  0  0  0  0  0  0
   17.7750  -10.1535    0.0000 O   0  0  0  0  0  0  0  0  0  0  0  0
   16.3138  -10.1535    0.0000 O   0  0  0  0  0  0  0  0  0  0  0  0
   16.9499  -10.9785    0.0000 O   0  0  0  0  0  0  0  0  0  0  0  0
    8.3762  -10.1535    0.0000 O   0  0  0  0  0  0  0  0  0  0  0  0
   14.0921   -6.8535    0.0000 O   0  0  0  0  0  0  0  0  0  0  0  0
   12.6732  -12.9217    0.0000 S   0  0  0  0  0  0  0  0  0  0  0  0
   11.9277  -12.9217    0.0000 O   0  0  0  0  0  0  0  0  0  0  0  0
   13.4883  -12.9217    0.0000 O   0  0  0  0  0  0  0  0  0  0  0  0
   12.6732  -13.7367    0.0000 O   0  0  0  0  0  0  0  0  0  0  0  0
    3.2006  -10.9934    0.0000 Na  0  0  0  0  0  0  0  0  0  0  0  0
    8.7794   -8.0810    0.0000 Na  0  0  0  0  0  0  0  0  0  0  0  0
    6.2424   -9.8344    0.0000 Na  0  0  0  0  0  0  0  0  0  0  0  0
   11.4307   -6.9876    0.0000 Na  0  0  0  0  0  0  0  0  0  0  0  0
   13.3889   -5.6756    0.0000 Na  0  0  0  0  0  0  0  0  0  0  0  0
   20.6946   -9.6913    0.0000 Na  0  0  0  0  0  0  0  0  0  0  0  0
   17.5834  -11.7786    0.0000 Na  0  0  0  0  0  0  0  0  0  0  0  0
   13.2994  -14.6313    0.0000 Na  0  0  0  0  0  0  0  0  0  0  0  0
    9.8404  -15.9732    0.0000 Na  0  0  0  0  0  0  0  0  0  0  0  0
   15.4762  -12.8024    0.0000 Na  0  0  0  0  0  0  0  0  0  0  0  0
    0.0000    0.0000    0.0000 H   0  0  0  0  0  0  0  0  0  0  0  0
    0.0000    0.0000    0.0000 H   0  0  0  0  0  0  0  0  0  0  0  0
    0.0000    0.0000    0.0000 H   0  0  0  0  0  0  0  0  0  0  0  0
    0.0000    0.0000    0.0000 H   0  0  0  0  0  0  0  0  0  0  0  0
    0.0000    0.0000    0.0000 H   0  0  0  0  0  0  0  0  0  0  0  0
    0.0000    0.0000    0.0000 H   0  0  0  0  0  0  0  0  0  0  0  0
    0.0000    0.0000    0.0000 H   0  0  0  0  0  0  0  0  0  0  0  0
    0.0000    0.0000    0.0000 H   0  0  0  0  0  0  0  0  0  0  0  0
    0.0000    0.0000    0.0000 H   0  0  0  0  0  0  0  0  0  0  0  0
    0.0000    0.0000    0.0000 H   0  0  0  0  0  0  0  0  0  0  0  0
    0.0000    0.0000    0.0000 H   0  0  0  0  0  0  0  0  0  0  0  0
    0.0000    0.0000    0.0000 H   0  0  0  0  0  0  0  0  0  0  0  0
    0.0000    0.0000    0.0000 H   0  0  0  0  0  0  0  0  0  0  0  0
    0.0000    0.0000    0.0000 H   0  0  0  0  0  0  0  0  0  0  0  0
    0.0000    0.0000    0.0000 H   0  0  0  0  0  0  0  0  0  0  0  0
    0.0000    0.0000    0.0000 H   0  0  0  0  0  0  0  0  0  0  0  0
    0.0000    0.0000    0.0000 H   0  0  0  0  0  0  0  0  0  0  0  0
    0.0000    0.0000    0.0000 H   0  0  0  0  0  0  0  0  0  0  0  0
    0.0000    0.0000    0.0000 H   0  0  0  0  0  0  0  0  0  0  0  0
    0.0000    0.0000    0.0000 H   0  0  0  0  0  0  0  0  0  0  0  0
    0.0000    0.0000    0.0000 H   0  0  0  0  0  0  0  0  0  0  0  0
    0.0000    0.0000    0.0000 H   0  0  0  0  0  0  0  0  0  0  0  0
    0.0000    0.0000    0.0000 H   0  0  0  0  0  0  0  0  0  0  0  0
    0.0000    0.0000    0.0000 H   0  0  0  0  0  0  0  0  0  0  0  0
    0.0000    0.0000    0.0000 H   0  0  0  0  0  0  0  0  0  0  0  0
    0.0000    0.0000    0.0000 H   0  0  0  0  0  0  0  0  0  0  0  0
    0.0000    0.0000    0.0000 H   0  0  0  0  0  0  0  0  0  0  0  0
    0.0000    0.0000    0.0000 H   0  0  0  0  0  0  0  0  0  0  0  0
    0.0000    0.0000    0.0000 H   0  0  0  0  0  0  0  0  0  0  0  0
    0.0000    0.0000    0.0000 H   0  0  0  0  0  0  0  0  0  0  0  0
    0.0000    0.0000    0.0000 H   0  0  0  0  0  0  0  0  0  0  0  0
    0.0000    0.0000    0.0000 H   0  0  0  0  0  0  0  0  0  0  0  0
    0.0000    0.0000    0.0000 H   0  0  0  0  0  0  0  0  0  0  0  0
    0.0000    0.0000    0.0000 H   0  0  0  0  0  0  0  0  0  0  0  0
    0.0000    0.0000    0.0000 H   0  0  0  0  0  0  0  0  0  0  0  0
    0.0000    0.0000    0.0000 H   0  0  0  0  0  0  0  0  0  0  0  0
    0.0000    0.0000    0.0000 H   0  0  0  0  0  0  0  0  0  0  0  0
    0.0000    0.0000    0.0000 H   0  0  0  0  0  0  0  0  0  0  0  0
    0.0000    0.0000    0.0000 H   0  0  0  0  0  0  0  0  0  0  0  0
    0.0000    0.0000    0.0000 H   0  0  0  0  0  0  0  0  0  0  0  0
    0.0000    0.0000    0.0000 H   0  0  0  0  0  0  0  0  0  0  0  0
    0.0000    0.0000    0.0000 H   0  0  0  0  0  0  0  0  0  0  0  0
    0.0000    0.0000    0.0000 H   0  0  0  0  0  0  0  0  0  0  0  0
    0.0000    0.0000    0.0000 H   0  0  0  0  0  0  0  0  0  0  0  0
    0.0000    0.0000    0.0000 H   0  0  0  0  0  0  0  0  0  0  0  0
  1  2  1  0
  1  3  1  0
  2  4  1  0
  3  5  1  0
  4  6  1  0
  5  6  1  0
  1  7  1  6
  2  8  1  1
  4  9  1  6
  6 10  1  6
  5 11  1  1
 12 11  1  0
 13 14  1  0
 13 15  1  0
 14 16  1  0
 15 17  1  0
 16 18  1  0
 17 18  1  0
 13 19  1  1
 14 20  1  1
 16 21  1  6
 18  7  1  6
 17 22  1  1
 23 22  1  0
 24 25  1  0
 24 26  1  0
 25 27  1  0
 26 28  1  0
 27 29  1  0
 28 29  1  0
 24 30  1  6
 25 31  1  1
 27 32  1  6
 29 19  1  6
 28 33  1  1
 34 33  1  0
 35 36  1  0
 35 37  1  0
 36 38  1  0
 37 39  1  0
 38 40  1  0
 39 40  1  0
 35 41  1  6
 36 42  1  1
 38 43  1  6
 40 30  1  6
 39 44  1  6
 45 44  1  0
 46 47  1  0
 46 48  1  0
 47 49  1  0
 48 50  1  0
 49 51  1  0
 50 51  1  0
 46 52  1  1
 47 53  1  1
 49 54  1  1
 51 41  1  6
 50 55  1  1
 56 55  1  0
 52 57  1  0
 59 58  2  0
 60 58  2  0
 61 58  1  0
 12 58  1  0
 63 62  2  0
 64 62  2  0
 65 62  1  0
  8 62  1  0
 67 66  2  0
 68 66  2  0
 69 66  1  0
 34 66  1  0
 71 70  2  0
 72 70  2  0
 73 70  1  0
 31 70  1  0
 75 74  2  0
 76 74  2  0
 77 74  1  0
 56 74  1  0
 79 78  2  0
 80 78  2  0
 81 78  1  0
 53 78  1  0
 83 82  2  0
 84 82  2  0
 85 82  1  0
 42 82  1  0
 22 86  2  0
 44 87  2  0
 32 88  1  0
 88 89  2  0
 88 90  2  0
 88 91  1  0
  1102  1  0
  2103  1  0
  4104  1  0
  5105  1  0
  6106  1  0
  8107  1  0
  9108  1  0
 10109  1  0
 11110  1  0
 11111  1  0
 13112  1  0
 14113  1  0
 16114  1  0
 17115  1  0
 18116  1  0
 20117  1  0
 21118  1  0
 23119  1  0
 24120  1  0
 25121  1  0
 27122  1  0
 28123  1  0
 29124  1  0
 31125  1  0
 33126  1  0
 33127  1  0
 35128  1  0
 36129  1  0
 38130  1  0
 39131  1  0
 40132  1  0
 43133  1  0
 45134  1  0
 46135  1  0
 47136  1  0
 49137  1  0
 50138  1  0
 51139  1  0
 53140  1  0
 54141  1  0
 55142  1  0
 55143  1  0
 57144  1  0
 57145  1  0
 57146  1  0
M  CHG  8  61  -1  65  -1  69  -1  73  -1  77  -1  81  -1  85  -1  91  -1
M  CHG  8  92   1  93   1  94   1  95   1  96   1  97   1  98   1  99   1
M  CHG  2 100   1 101   1
M  END
>  <DATABASE_ID>  (1) 
DB00569

>  <DATABASE_NAME>  (1) 
drugbank

>  <DRUGBANK_ID>  (1) 
DB00569

>  <DRUG_GROUPS>  (1) 
approved; investigational

>  <EXACT_MASS>  (1) 
1728.786427203

>  <FORMULA>  (1) 
C31H45N3Na10O49S8

>  <GENERIC_NAME>  (1) 
Fondaparinux sodium

>  <INCHI_IDENTIFIER>  (1) 
InChI=1S/C31H53N3O49S8.10Na/c1-69-27-9(33-85(48,49)50)13(37)17(6(74-27)3-71-88(57,58)59)76-31-22(83-91(66,67)68)16(40)21(24(81-31)26(43)44)79-29-10(34-86(51,52)53)19(82-90(63,64)65)18(7(75-29)4-72-89(60,61)62)77-30-15(39)14(38)20(23(80-30)25(41)42)78-28-8(32-84(45,46)47)12(36)11(35)5(73-28)2-70-87(54,55)56;;;;;;;;;;/h5-24,27-40H,2-4H2,1H3,(H,41,42)(H,43,44)(H,45,46,47)(H,48,49,50)(H,51,52,53)(H,54,55,56)(H,57,58,59)(H,60,61,62)(H,63,64,65)(H,66,67,68);;;;;;;;;;/q;10*+1/p-8/t5-,6-,7-,8-,9-,10-,11-,12-,13-,14-,15-,16+,17-,18-,19-,20+,21+,22-,23+,24-,27+,28-,29-,30-,31-;;;;;;;;;;/m1........../s1

>  <INCHI_KEY>  (1) 
XEKSTYNIJLDDAZ-JASSWCPGSA-F

>  <JCHEM_ACCEPTOR_COUNT>  (1) 
44

>  <JCHEM_AVERAGE_POLARIZABILITY>  (1) 
119.19910953271793

>  <JCHEM_BIOAVAILABILITY>  (1) 
0

>  <JCHEM_DONOR_COUNT>  (1) 
11

>  <JCHEM_FORMAL_CHARGE>  (1) 
2

>  <JCHEM_GHOSE_FILTER>  (1) 
0

>  <JCHEM_IUPAC>  (1) 
decasodium N-[(2S,3R,4R,5S,6R)-5-{[(2R,3R,4S,5S,6R)-6-carboxy-5-{[(2R,3R,4R,5R,6R)-5-{[(2R,3R,4R,5S,6S)-6-carboxy-5-{[(2R,3R,4R,5S,6R)-4,5-dihydroxy-3-(sulfonatoamino)-6-[(sulfonatooxy)methyl]oxan-2-yl]oxy}-3,4-dihydroxyoxan-2-yl]oxy}-3-(sulfonatoamino)-4-(sulfonatooxy)-6-[(sulfonatooxy)methyl]oxan-2-yl]oxy}-4-hydroxy-3-(sulfonatooxy)oxan-2-yl]oxy}-4-hydroxy-2-methoxy-6-[(sulfonatooxy)methyl]oxan-3-yl]sulfamate

>  <JCHEM_LOGP>  (1) 
-10.479801889

>  <JCHEM_MDDR_LIKE_RULE>  (1) 
1

>  <JCHEM_NUMBER_OF_RINGS>  (1) 
5

>  <JCHEM_PHYSIOLOGICAL_CHARGE>  (1) 
-10

>  <JCHEM_PKA>  (1) 
-2.570233228629043

>  <JCHEM_PKA_STRONGEST_ACIDIC>  (1) 
-2.9501637229060833

>  <JCHEM_POLAR_SURFACE_AREA>  (1) 
828.1200000000002

>  <JCHEM_REFRACTIVITY>  (1) 
246.87280000000013

>  <JCHEM_ROTATABLE_BOND_COUNT>  (1) 
27

>  <JCHEM_RULE_OF_FIVE>  (1) 
0

>  <JCHEM_TRADITIONAL_IUPAC>  (1) 
decasodium N-[(2S,3R,4R,5S,6R)-5-{[(2R,3R,4S,5S,6R)-6-carboxy-5-{[(2R,3R,4R,5R,6R)-5-{[(2R,3R,4R,5S,6S)-6-carboxy-5-{[(2R,3R,4R,5S,6R)-4,5-dihydroxy-3-(sulfonatoamino)-6-[(sulfonatooxy)methyl]oxan-2-yl]oxy}-3,4-dihydroxyoxan-2-yl]oxy}-3-(sulfonatoamino)-4-(sulfonatooxy)-6-[(sulfonatooxy)methyl]oxan-2-yl]oxy}-4-hydroxy-3-(sulfonatooxy)oxan-2-yl]oxy}-4-hydroxy-2-methoxy-6-[(sulfonatooxy)methyl]oxan-3-yl]sulfamate

>  <JCHEM_VEBER_RULE>  (1) 
0

>  <MOLECULAR_WEIGHT>  (1) 
1730.097

>  <PRODUCTS>  (1) 
Arixtra; Fondaparinux Sodium; Fondaparinux Sodium Injection

>  <SECONDARY_ACCESSION_NUMBERS>  (1) 
APRD00500

>  <SMILES>  (1) 
[Na+].[Na+].[Na+].[Na+].[Na+].[Na+].[Na+].[Na+].[Na+].[Na+].CO[C@H]1O[C@H](COS([O-])(=O)=O)[C@@H](O[C@@H]2O[C@H]([C@@H](O[C@H]3O[C@H](COS([O-])(=O)=O)[C@@H](O[C@@H]4O[C@@H]([C@@H](O[C@H]5O[C@H](COS([O-])(=O)=O)[C@@H](O)[C@H](O)[C@H]5NS([O-])(=O)=O)[C@H](O)[C@H]4O)C(O)=O)[C@H](OS([O-])(=O)=O)[C@H]3NS([O-])(=O)=O)[C@H](O)[C@H]2OS([O-])(=O)=O)C(O)=O)[C@H](O)[C@H]1NS([O-])(=O)=O

$$$$
