menthol
     RDKit          2D

 31 31  0  0  1  0  0  0  0  0999 V2000
    0.0000    2.4750    0.0000 C   0  0  0  0  0  0  0  0  0  0  0  0
    0.7145    2.0625    0.0000 C   0  0  0  0  0  0  0  0  0  0  0  0
    1.4289    2.4750    0.0000 C   0  0  0  0  0  0  0  0  0  0  0  0
    0.7145    1.2375    0.0000 C   0  0  0  0  0  0  0  0  0  0  0  0
    1.4289    0.8250    0.0000 C   0  0  0  0  0  0  0  0  0  0  0  0
    1.4289    0.0000    0.0000 C   0  0  0  0  0  0  0  0  0  0  0  0
    0.7145   -0.4125    0.0000 C   0  0  0  0  0  0  0  0  0  0  0  0
    0.7145   -1.2375    0.0000 C   0  0  0  0  0  0  0  0  0  0  0  0
    0.0000    0.0000    0.0000 C   0  0  0  0  0  0  0  0  0  0  0  0
    0.0000    0.8250    0.0000 C   0  0  0  0  0  0  0  0  0  0  0  0
   -0.7145    1.2375    0.0000 O   0  0  0  0  0  0  0  0  0  0  0  0
    0.0000    0.0000    0.0000 H   0  0  0  0  0  0  0  0  0  0  0  0
    0.0000    0.0000    0.0000 H   0  0  0  0  0  0  0  0  0  0  0  0
    0.0000    0.0000    0.0000 H   0  0  0  0  0  0  0  0  0  0  0  0
    0.0000    0.0000    0.0000 H   0  0  0  0  0  0  0  0  0  0  0  0
    0.0000    0.0000    0.0000 H   0  0  0  0  0  0  0  0  0  0  0  0
    0.0000    0.0000    0.0000 H   0  0  0  0  0  0  0  0  0  0  0  0
    0.0000    0.0000    0.0000 H   0  0  0  0  0  0  0  0  0  0  0  0
    0.0000    0.0000    0.0000 H   0  0  0  0  0  0  0  0  0  0  0  0
    0.0000    0.0000    0.0000 H   0  0  0  0  0  0  0  0  0  0  0  0
    0.0000    0.0000    0.0000 H   0  0  0  0  0  0  0  0  0  0  0  0
    0.0000    0.0000    0.0000 H   0  0  0  0  0  0  0  0  0  0  0  0
    0.0000    0.0000    0.0000 H   0  0  0  0  0  0  0  0  0  0  0  0
    0.0000    0.0000    0.0000 H   0  0  0  0  0  0  0  0  0  0  0  0
    0.0000    0.0000    0.0000 H   0  0  0  0  0  0  0  0  0  0  0  0
    0.0000    0.0000    0.0000 H   0  0  0  0  0  0  0  0  0  0  0  0
    0.0000    0.0000    0.0000 H   0  0  0  0  0  0  0  0  0  0  0  0
    0.0000    0.0000    0.0000 H   0  0  0  0  0  0  0  0  0  0  0  0
    0.0000    0.0000    0.0000 H   0  0  0  0  0  0  0  0  0  0  0  0
    0.0000    0.0000    0.0000 H   0  0  0  0  0  0  0  0  0  0  0  0
    0.0000    0.0000    0.0000 H   0  0  0  0  0  0  0  0  0  0  0  0
  1  2  1  0
  2  3  1  0
  4  2  1  1
  4  5  1  0
  5  6  1  0
  6  7  1  0
  7  8  1  6
  7  9  1  0
  9 10  1  0
  4 10  1  0
 10 11  1  1
  1 12  1  0
  1 13  1  0
  1 14  1  0
  2 15  1  0
  3 16  1  0
  3 17  1  0
  3 18  1  0
  4 19  1  0
  5 20  1  0
  5 21  1  0
  6 22  1  0
  6 23  1  0
  7 24  1  0
  8 25  1  0
  8 26  1  0
  8 27  1  0
  9 28  1  0
  9 29  1  0
 10 30  1  0
 11 31  1  0
M  END
>  <ALOGPS_LOGP>  (1) 
2.68

>  <ALOGPS_LOGS>  (1) 
-2.45

>  <ALOGPS_SOLUBILITY>  (1) 
5.58e-01 g/l

>  <DATABASE_ID>  (1) 
DB00825

>  <DATABASE_NAME>  (1) 
drugbank

>  <DRUGBANK_ID>  (1) 
DB00825

>  <DRUG_GROUPS>  (1) 
approved

>  <EXACT_MASS>  (1) 
156.151415264

>  <FORMULA>  (1) 
C10H20O

>  <GENERIC_NAME>  (1) 
Menthol

>  <INCHI_IDENTIFIER>  (1) 
InChI=1S/C10H20O/c1-7(2)9-5-4-8(3)6-10(9)11/h7-11H,4-6H2,1-3H3/t8-,9+,10-/m1/s1

>  <INCHI_KEY>  (1) 
NOOLISFMXDJSKH-KXUCPTDWSA-N

>  <JCHEM_ACCEPTOR_COUNT>  (1) 
1

>  <JCHEM_ATOM_COUNT>  (1) 
31

>  <JCHEM_AVERAGE_POLARIZABILITY>  (1) 
19.69012569770345

>  <JCHEM_BIOAVAILABILITY>  (1) 
1

>  <JCHEM_DONOR_COUNT>  (1) 
1

>  <JCHEM_FORMAL_CHARGE>  (1) 
0

>  <JCHEM_GHOSE_FILTER>  (1) 
0

>  <JCHEM_IUPAC>  (1) 
(1R,2S,5R)-5-methyl-2-(propan-2-yl)cyclohexan-1-ol

>  <JCHEM_LOGP>  (1) 
2.6642731470000007

>  <JCHEM_MDDR_LIKE_RULE>  (1) 
0

>  <JCHEM_NUMBER_OF_RINGS>  (1) 
1

>  <JCHEM_PHYSIOLOGICAL_CHARGE>  (1) 
0

>  <JCHEM_PKA_STRONGEST_ACIDIC>  (1) 
19.54964736878105

>  <JCHEM_PKA_STRONGEST_BASIC>  (1) 
-0.8087842408951696

>  <JCHEM_POLAR_SURFACE_AREA>  (1) 
20.23

>  <JCHEM_REFRACTIVITY>  (1) 
47.445299999999996

>  <JCHEM_ROTATABLE_BOND_COUNT>  (1) 
1

>  <JCHEM_RULE_OF_FIVE>  (1) 
1

>  <JCHEM_TRADITIONAL_IUPAC>  (1) 
menthol

>  <JCHEM_VEBER_RULE>  (1) 
1

>  <MOLECULAR_WEIGHT>  (1) 
156.269

>  <PRODUCTS>  (1) 
0 Degrees Pain Relieving; 1st RELIEF TOPICAL; 701 Dieda Zhengtong Yaogao Medicated Plaster; 999 Itch Relief; A.C.C Fresh and Cooling Scalp Mist; AL0040600 Alba Cooling Aloe Burn Relief; ALGOMEND Pain Relief; AMPlify Relief MM; ANC Neverpain External Analgesic; ARCTIC ICE pain relieving; ATOPALM Deep Penetrating Pain Relieving; Abee Med; Absorbine BACK Therapeutic Pain Relief; Absorbine Jr; Absorbine Jr Antifungal Liq; Absorbine Jr Extra Strength Liniment; Absorbine Jr Liniment; Absorbine Jr Plus Ultra Strength Pain; Absorbine Jr Ultra Strength Pain Relieving; Absorbine Jr.; Absorbine Jr. Back; Absorbine Jr. Plus; Absorbine Power Gel; Aching Head Rub; Achy; Actisep; ActivOn Ultra Strength Arthritis; ActivOn Ultra Strength Joint and Muscle; Activate Joint and Muscle Relief; Advanced Antiseptic; Advanced Antiseptic Citrus; Advanced Citrus; Advanced Citrus Antiseptic; Aeroburn Burn First Aid; Aflexeryl-LC; Aflexeryl-MC; Ageless Pain Relief; Air Sinsin Pas; Air Sinsinpas-EX; Alegenix Biofrequency Chip; Alhua Huogan Pain Relieving Patch; Alivio; Alivio Medicated Pain; Allevess; Allure Ice Cold Analgesic; Allure Vaporizing Chest Rub; Alo Therapeutic Massage; Alo Therapeutic Massage Pain Relieving; Aloe Vera Gel; Aloemint Skin Aid; Alsirub Ont; Amar Ice; Amar Vaporizing Chest Rub; Amber Mouth Rinse; Amber Mouth Wash  -  Liq; Amber Mouthwash - Liq; Amerfresh Medicated; Ameri Patch; AmeriPatch; Amoray Care Chest Rub; Amrut Balm; Amrutanjan Relief Cold Rub; Amrutanjan Relief Pain Balm; Amrutanjan Relief Strong Pain Balm; Analgesic; Analgesic Balm; Anbesol Liquid; Anbesol Maximum Strength Liquid; Angidol Cherry Flavor; Angidol Honey Lemon Flavor; Anitseptic Mouth Rinse; AnodyneRx; Anti Itch; Anti Itch Maximum Relief; Anti-Intch Well at Walgreens; Anti-Itch; Antibiotic Cold Sore Ointment; Antiphlamine Coin Plaster; Antiphlogistine Rub A 535 Extra Strength; Antiphlogistine Rub A-535 Ice Gel 4%; Antiphlogistine Rub A535; Antiseptic; Antiseptic Blue Mint Mouthwash; Antiseptic Lil Drug Store Products; Antiseptic Mouth Rinse; Antiseptic Mouth Rinse - Liq; Antiseptic Mouth rinse; Antiseptic Mouthrinse; Antiseptic Rinse; Antiseptic Rinse Spring Mint; Antispetic; Antispetic Mouth Rinse; Apanol Arthritis Extra Strength; Apanol Athletics; Apanol Muscle Rub; Apeaz Ultra; Apr15; Aquacool; Aquacool Air; Aquacool Blue 120; Aquacool Blue 500; Aquacool Blue Roll; Aquacool Red 120; Aquacool Red 500; Aquacool Red Roll; Aquacool Shower; Arctic Blast Pain Drops; Arctic Heat; Arctic Ice Analgesic; Arctic Relief; Arctic Relief Roll On; Arex Sinsin Pas; Arhtri Plus; Army Health Pain Reliever; Arneu; Arnica Ice Cooling; Arnica Pain Relief; Arthri-Zen Relief; Arthri-support; ArthriPain Relief; Arthricare Pain Relieving Rub Triple Medicated Gel; Arthricare for Women Multi-action; Arthricare for Women Nighttime; Arthricare for Women Ultra Strength; Arthrit-ease; Arthritis Extra Strength Roll-ON Lotion; Arthritis Hot; Arthritis Pain Reliever Herbalife; Arthritis Pain Relieving Cream; Arthritis Plus Gel; Arthritis Relief; Arthritis and Joint Pain Relief Thayers; Arthro Rheuma Cream; Arthrocare Lotion; Artic Ice Analgesic Gel 2.5%; Artico Ice; Artrex; Asana Kisser; Aspercreme Heat; Aspercreme Max No Mess Roll On; Ass Kisser; Assorted Fruit Cough Drops; Assured; Assured Cold N Hot Pain Relief Menthol; Assured Extra Strength Cold n hot; Assured Ice Cold Topical Analgesic; Assured Medicated Body Powder; Assured Medicated Foot Powder; Assured Menthol Relief Stick; Assured Muscle Rub; Assured Pain Relief Hot Menthol; Assured Pain Relief Hot Patch; Assured Vaporizing Chest Rub; Asthma Aide Synergy; At One With Nature; Atomy Hair Treatment; Atomy Herbal Hair Tonic; Atopalm Moisturizing Muscle Rub; Atopalm Muscle and Joint; Atopalm Pain Relieving; Au Kah Chuen Skin Lotion; Aurora Blue Mint; Aurora Fresh Burst; Aurorae Healing Pain Relieving Roll-On; AvaDerm; Avalin External Analgesic Patch; Avance Cure Barrier; Avapta; Aveda Active Composition; Avedana Cool Hot Ice; Avedana Medicated Chest Rub; Avedana Pain Relieving Roll On; Avedana Pain-Relieving; Avon Healthy Remedies Menthol & Camphor Soothing Relief Gel; Avon Healthy Remedies Menthol Celadrin Pain Relief Cream; Axe Brand Medicated; BAMA Freeze; BAROX Body Care Massage Relax Refresh Revital; BENGAY Pain Relief and Massage; BabyGanics Cold Relief Chest Rub; Back Pain Relieving Oil; Bakers Best Arthritis Pain Relief; Balm Stick; Balminil Camphorub; Balminil Nasal Ointment; Banalg; Banana Boat Medicated Lip Balm; Banana Boat Sooth-A-caine Spray Gel; Banana Boat Sooth-A-caine W.moist.aloe V.gel; Barox; Barox Body Care Massage; Barox S; Barrier Protectant Cream; BeKoool Itch Relief; Beech Nut Honey Lemon Cough Drop; Beech Nut Wild Cherry Cough Dps; Beech Nut Wild Cherry Cough Drop; Being Well Antiseptic; Being Well Extra Strength Menthol Heat; Ben-gay Ice; Bene Patch; BenePatch; Bengay Arthritis Pain Relieving; Bengay Cold Therapy; Bengay Cold Therapy With PRO-COOL technology; Bengay Extra Strength Ice; Bengay Greaseless Pain Relieving; Bengay Pain Relieving Greaseless; Bengay Ultra Strength Large Size; Bengay Ultra Strength Non Greasy Pain Relieving; Bengay Ultra Strength Pain Relieving Large Size; Bengay Ultra Strength Pain Relieving Regular Size; Bengay Ultra Strength Regular Size; Bengay Vanishing Scent Pain Relieving; Bengay Zero Degrees Menthol Pain Relieving; Bentasil Blackcurrant; Bentasil Extra Strength Eucalyptus; Bentasil Extra Strength Menthol; Bentasil SUGAR FREE BLACKCURRANT SOFT Texture; Bentasil SUGAR FREE CHERRY SOFT Texture; Bentasil SUGAR FREE EUCALYPTUS SOFT Texture; Bentasil SUGAR FREE HONEY LEMON SOFT Texture; Benylin 1 Nightime With Menthactin; Benylin 1 With Menthactin; Benylin DM-D Soft Chews With Menthactin; Benylin DM-D With Menthactin; Benylin DM-D-E Extra Strength With Menthactin; Benylin DM-D-E With Menthactin; Benylin DM-E Menthol Extra Strength Cough and Chest Congestion; Benylin E Menthol Extra Strength; Benylin Extra Strength Cough Plus Cold Relief; Benylin Extra Strength Mucus & Phlegm; Benylin Extra Strength Mucus & Phlegm Plus Cough Control; Benylin Extra Strength With Menthactin; Benylin Extra Strength for People With Diabetes; Benzocaine; Benzocaine, Menthol, Zinc Chloride; Berri-Freez; Berri-Freez Plus; Best Health Sore Throat Relief Cherry Flavor; BestCo Inc.; BestHealth Cherry; BestHealth Cough Suppressant SUGAR FREE BLACK CHERRY FLAVOR; BestHealth Cough Suppressant SUGAR FREE HONEY LEMON FLAVOR; BestHealth Honey Lemon; BestHealth Menthol; Big V Cough Lozenges Cherry 6.1mg/loz; Big V Honey-lemon Cough Lozenges 8.4mg/loz; Big V Menthol Cough Lozenges 6.1mg/loz; Bio 2 Brazilian Heat Brazilian Heat; Bio-Scriptives Extreme PR; Bio-ice; Bio-mega; BioBlast Pain Relief; BioFlexor; BioMega Cold Pain Therapy; BioRelief Ice Pain Relieving; BioTemper; Bioaches; Bioactil; Biocool Roll Type; Biocool Tube Type; Biofreeze; Biofreeze Colorless; Biofreeze Colorless Roll-On; Biofreeze Professional; Biofreeze Professional Colorless; Biofreeze Professional Colorless Roll-On; Biofreeze Professional Roll-On; Biofreeze Roll-On; Biotemper; Bite Relief; Blister Balm; Blistex Dct; Blistex Ivarest Medicated Poison Ivy Cleansing Foam; Blistex Lip; Blistex Lip Medex; Blistex Medicated; Blistex Odor Eaters Medicated Foot; Blue Gel Pain Relieving; Blue Ice; Blue Ice 2.5%; Blue Ice Analgesic; Blue Ice Analgesic Gel; Blue Ice Fermented Cod Liver Oil Calm Balm; Blue Ice Pain Relieving; Blue Ice Topical Analgesic; Body; Bon Balm Penetrating Pain Relief; Borasol; Boroleum for Nasal Soreness; Bortons Menticol; Braline Patch; Breathe Deeply; Breathiezzz; Bronchodex Fort-DM Syr; Bronchodex Vapo Ont; Bronchodex-rub; Bronchophan Onguent Vaporisant; Bronco Rub; Broncolin; Broncolin Herbal Extracts and Honey; Broncolin Honey Eucalyptus; Buckley's Complete; Buckley's Complete PM - Nighttime; Buckley's Complete Plus Mucous Relief; Buckley's Complete Plus Mucous Relief Extra Strength; Buckley's Cough Chest Congestion; Buckley's Cough, Mucous & Phlegm; Buckley's Night Time Mixture; Budpack Muscle Rub; Budpak Medicated Anti Itch; Budpak Muscle Rub; Buenos Dias de Personna citrus flavour; Buenos Dias de Personna cool mint; Buenos Dias de Personna mint; Buenos Dias de Personna original; Burn Relief Cream; Burn Relief Extra Strength Kool-Down; Burn Relief Gel; Burn Relief Kol-Down; Burn Relief Professional Kool-Down; Bye Bye Bite Lot; CAMPHOR, EUCALYPTUS OIL and MENTHOL; CAREALL Muscle Rub Ultra Strength; CAREALL Musle and Joint; CARMEX original lip balm EXTERNAL ANALGESIC; CBD Clinic - Massage Oil - Level 2; CBD Clinic - Massage Oil - Level 3; CBD Clinic - Moderate Muscle and Joint Pain Relief; CBD Clinic Deep Muscle and Joint Pain Relief; CBD Clinic Pro Sport - Deep Muscle and Joint Pain; CBD Clinic Pro Sport - Pain Stick; CBD Medic - Active Sport Extreme Relief; CBD Medic - Arthritis Deep Relief; CBD Medic - Intense Powerful Relief; CHRIOLOGY Relax Up; CMX Topical Pain; CU Pain Away Pain Relief; CVS Chest Rub; CVS Cold Hot Medicated; CVS Cold and Hot Pain Relieving Stick; CVS Extra Strength Cold and Hot Medicated; CVS Extra Strength Cold and Hot Medicated Patch; CVS Extra Strength Cold and Hot Pain Relieving; CVS Extra Strength Pain Relief; CVS Health Cold and Hot Pain Relieving Extra Strength; CVS Health Medicated Chest Rub; CVS Health Muscle Rub Ultra Strength; CVS Maximum Strength Cold and Hot Pain Relief Topical Analgesic; CVS Medicated Anti-Itch; CVS Medicated Chest Rub Roll-On; CVS Medicated Pain; CVS Medicated Pain Relieving; CVS Pharmacy Cough Relief Honey Lemon Flavor; CVS Pharmacy Toothache and Gum Reliever; CVS Pomegranate Cough; CVS Soothing Itch Relief; CVS Sore Muscle Rub Vanishing Scent; CVS Therapeutic Menthol Gel; CVS Therapeutic Menthol Pain Reliever; CVS Tropical Citrus Cough; CVS Ultra Strength Pain Relieving; CVS Vanishing Scent Muscle Rub; CVS Watermelon Cough; CYHOT Cream with Lidocaine Well at WAlgreens; Cajun Hot Ice Muscle and Joint Pain Rub; Cal Mo Dol Ont; Caladrox; CalmaFX Moisture Barrier; Calmadol; Calmitol Itching Relief Ont; Calmodrox; Calmomusc Liq; Calmoseptine; Calypxo Pain Relief; Cam Sun (huile Therapeutique); Camocare Pain Relieving Cream; Campho Rex; Camphomex; Camphor, Menthol; Camphorated Ointment Compound; Camphotrex; Canker Care Plus; Canker Complete Canker Sore Relief; Capment; Capsiderm; Capsodan Cream; Capxib; Capzasin Quick Relief; Carboseptol; Care One Cool Heat Extra Strength; Care One Cool Heat Pain Relieving; Care One Pain Relief; CareAll Medicated Chest Rub; Careone Extra Strength Cold and Hot; Carione Rg Toner; Carmatis Ont; Castiva Cooling; Celadrin; Celadrin Joint and Muscle Pain Relieving; Celestial Seasonings Herbal Throat Drops; Celestial Seasonings Herbal Throat Drops - Golden Herbal Blend; Cellapy Haircell; Cellapy Haircell Meso Tonic; Cellbn Mega Plus; Cellulitica Synergy; Cepacol Extra Strength Sore Throat Tangerine; Cepacol Extra Strength Sore Throat cherry; Cepacol Extra Strength Sore Throat honey lemon; Cepacol Extra Strength Sore Throat sugar free cherry; Cepacol Instamax Sore Throat Arctic Cherry; Cepacol Sensations Cooling; Cepacol Sensations Sore Throat & Blocked Nose; Cepacol Sensations Sore Throat & Cough; Cepacol Sensations Sore Throat Cooling ice cool; Cepacol Sore Throat; Cepacol Sore Throat Maximum Numbing Cherry; Cepacol Sore Throat Maximum Numbing Citrus; Cepacol Sore Throat Maximum Numbing Honey Lemon; Cepacol Sore Throat Maximum Numbing Sugar Free Cherry; Cepacol Sore Throat Regular Strength; Cepacol Sore Throat from Post Nasal Drip; Cepastat Sore Throat and Cough; Chamosyn; Chamosyn Paraben Free; Chan Yat Hing She Kun Wool Lok Medicated Oil; ChapIce Medicated Balm; Chapstick Medicated; Chapstick Medicated Lip Balm - Jar; Chapstick Medicated Lip Balm - Stk; Chapstick Medicated Lip Balm - Tube; Chase Coldsorex; Cherry Cough Drop; Cherry Cough Drops; Cherry Liquid Center Cough Drops; Cherry Sore Throat Lozenge; Cherry Sore Throat Lozenges; Cherry Sore Throat Lozenze; Cherry Sore Throat Relief Lozenge; Cherry Throat Relief Lozenges; Cherry cough drop; Cherry cough drops; Chest Comfort; Chest Rub; Chest Rub Ont; Chest Rub Vaporizing; Chest Rub Vaporizing Action; Chestrub; Chigarid; China-Gel Topical Pain Reliever; Ching Wan Hung Soothing Herbal Balm; Chloraseptic Sore Throat Liquid Center; Chloraseptic Sore Throat Max Liquid Center; Chloraseptic Total Sore Throat and Cough; Chloraseptic Total Sore Throat and Cough, Sugar Free; Choice Personal Care Theraputic Blue Ice; Choice Personal Care Vapor Rub; Cm Systems 2 Gel; Cold Hot Patch; Cold Pain Relieving; Cold Rub; Cold Sore Lotion; Cold Sore Support; Cold Sore Treatment; Cold Spot Point Relief; Cold Therapy; Cold and Hot; Cold and Hot CVS; Cold and Hot Medicated; Cold and Hot Medicated Large; Cold and Hot Medicated Pain Relief Large; Cold and Hot Medicated Pain Relief Small; Cold and Hot Medicated Patch; Cold and Hot Pain Relief; Cold and Hot Pain Relief Sleeve; Cold/Cough; Coldaid; Comfort EZ Extra Strength Pain Relief Patch; Comfort EZ Extra StrengthTransdermal Patch; Comfort EZ Pain Relief Patch; Comfort and Ease; Complete Fortify; Cool Heat; Cool Hot Ice Analgesic Gel; Cool Mint Antiseptic Mouthwash; Cool n Heat Patch for Arm, Neck and Leg Extra Strength; Cool n Heat Patch for Back Extra Strength; Cool n Heat Well at Walgreens; Cooling Epsom Rub; Cooln Heat Micro Well at Walgreens; Cooln Heat Muscle Rub Well at Walgreens; Coral Analgesic; Coralite Blue Ice; Coralite Cold and Hot; Coralite Extra Strength Cool and Hot; Coralite Extra Strength Menthol Pain Relief Sleeve - KNEE; Coralite Extra Strength Menthol Pain Relief Sleeve - WRIST; Coralite Extra Strength Pain Relief Sleeve Knee; Coralite Extra Strength Pain Relief Sleeve Wrist; Coralite Muscle Joint; Coralite Pain Relief; Coralite Pain Relief Stick; Coralite Ultra Strength Pain Relief; Corisin Arthritis Pain Relief; Cough Drops Cherry with Sugar; Cough Drops Honey Lemon with Sugar; Cough Drops Menthol Sugar Free; Cough Lozenges; Cough Lozenges Spearmint Menthol USP; Cough Suppressant and Topical Analgesic; CounterAct Cough Drops Honey Lemon; CounterAct Cough Drops Orchard Cherry; Cramergesic; Cryogel Island Rain Natural Pain Relieving Vitaminerals; Cuticura Medicated Body Powder; Cvs Anti Itch; Cvs Cold and Hot Medicated XL; Cvs Vanishing Scent Muscle Rub; DG Health Extra Strength Medicated; DG Health Pain Relieving; DG Ice Cold Analgesic; DINGTAI PHARMATopical Analgesic; DT Ice Cold Analgesic; Dakota Muscle Relief; Dakota Muscle Relief Roll-On; Dancers Select; Debbies Down and Dirty Deep Tissue Joint and Muscle; Deep Cold Arthritic Hand Lotion 2%; Deep Remedy; Delsym Cough Plus Soothing Action; Delsym Cough Relief Plus Soothing Action; DenTek Canker Cover; Dendracin Neurodendraxcin; Denorex Extra Strength Medicated Shampoo; Denorex Extra Strength Medicated Shampoo With Conditioners; Denorex Medicated Shampoo - Regular; Denorex Medicated Shampoo Spring Fresh; Denorex Medicated Shampoo With Conditioners; Denorex Therapeutic; Dentalgar Liq; DermacinRx DPN Pak; DermacinRx Lexifen; Dermarest Plus - Gel; Dermasarra; Dermaseptin; Dermoplast Pain Relieving; Dg Health Extra Strength Medicated; Diapedic Foot and Leg Treatment; Dieda Fengshi Gao Medicated Plaster; Direct Formulary Honey-lem. Menth. Cough Loz; Direct Formulary Menthol Cough Loz 6.1mg; Discount Drug Mart Blue Mint Mouthwash; Discount Drug Mart Original Flavor Mouthwash; Discount Drug Mart Spring Mint Mouthwash; Doans Pain Relieving; Doctor Hoys Natural Pain Relief; DoctorRelief; DolFrost Cool and Soothing Roll-On; Dollar General Medicated Pain Relief Patch; Dolor-parche With Lidocaine-RX; Doloracin Rx; Doloracin/l Rx With Lidocaine; Doloran; Dorflex Icy Hot Flexible, Large; Dorflex Icy Hot Flexible, Small; Dorflex Icy Hot Flexible, XL; Double Prawn Brand Herbal Oil; Dr Bob Arnots Pain; Dr MINERAL Anti-Itch; Dr MINERAL Anti-Itch Spray; Dr Sheffield Muscle Rub Cream; Dr Tans Arthritis Formula 3 day Patch; Dr Waltons Vapor Rub; Dr. Blue; Dr. Carrasco Pain Relief; Dr. J.I.s Arthritis Plus Gel; Dr. JIs Arthritis Plus; Dr. OH BALM; Dr. OH PATCH; Dr. Sheffield Barrier Cream; Dr. Sheffield Vapor Cream; Dr. Spensers Natural Herbal Pain Relief; Dr. Teals Pre and Post Workout Pain Relief; Dr. Waltons Cool and Hot Analgesic; Dr.'s Cream; Dr.oh Patch; Dragon; Dream Cream; Dry and Itchy Skin Relief Thayers; Dual Action Cherry Cough Suppressant Oral Anesthetic; Dual Action Honey Lemon Cough Suppressant Oral Anesthetic; Duane Reade hot and cold roll-on; Dusel Cool Arthritis Dead Sea Salt Therapy; Dynarex Muscle Rub Cream; E Mei Shan Medicated; EH Hair Plus Regeneration Hair Care; EH Plus H2CO3 Cool; Eagle; Eagle Brand Medicated Oil; Eagle Extra Strength; Eagle Medicated; Eagle Medicated Aromatic; Earths Best Cold Relief Vapor; Earths Care Anti-itch; Earths Care Hemorrhoid Relief; Earths Care Pain Relieving; Ease Pain Away Analgesic Lotion; Easter Scalp Tonic; Easy; Eb301ap Pain Relief; Eb301ct Bruise Pain Relief; Eb302 Arthritis Relief; Ecolyptus Pain Relieving Muscle Rub; Efac Pain Relieving; Electric Medicated Balm; Elgin Pain Relief; Embrace Anti-itch Skin Protectant With Calamine and Menthol; Emertussif Lozenges; Endoxcin; Equaline Blue Ice Pain Relieving; Equaline Cold and Hot Medicated Large; Equaline Cold and Hot Medicated Small; Equaline Muscle Rub; Equaline cool heat; Equaline muscle rub ultra strength; Equate Barrier Cream; Equate Cool and Heat; Equate Cool and Heat Extra Strength; Equate Medicated Dry and Itch; Equate Menthol extra strength; Equate Pain Relieving; Equate Pain Relieving Ultra Strength; Equate Tartar Control Plus; Equate Vaporizing; Eros Iron Man; Eternal Spirit Beauty Painless Pain Relieving Cream; Eucalyptamint; Eucamint; Eucerin Calming Itch Relief Treatment; Eucerin Skin Calming; Evels Secret Natural Pain Relief Daredevil Strength; Exchange Select Cool Heat; Exoten-C; External Analgesic; Extra Strength Cold n Hot Pain Relief Medicated; Extra Strength Hua Tuo Medicated Plaster; Extra Strength Medicated Body; Extra Strength Pain Relief Therapy; Extra Strength Pain Reliever; Extra Strength Stopain Cold Pain Relieving; Extra Strength Stopain Cold Pain Relieving Roll On; Extra Strength With Natural Menthol Glacier Mint Cough Suppressant; Ez Massager 2 Original; Ez Massager 4 Extra Strength; Ez Massager 4 Extra strength; FEEL GOOD YOU PLUS Relief, Pain Relief; FYZICAL SPORTS Pain Relief 1-COOL; Family Care Back Pain Therapy; Family Care Maximum Strength Medicated Anti Itch; Family Care Menthol Relief; Family Care Muscle Rub Pain Reliever; Family Care Muscle and Joint Vanishing Scent; Family Care Pain Relief; Family Care Thera Flex; Family Care Thera Flex Pain; Family Care Ultra Strength Pain Relief; Family Dollar Antiseptic Mouth Rinse; Family Dollar Antiseptic Mouth Rinse Blue Mint; Family Dollar Antiseptic Mouth Rinse Spring Mint; Family Wellness Cold and Hot Pain Relief; Fast Freeze; Fast Relief Artrosamin; Fast Relief Reumacetin; Fastrin Aches and Pain Deep Relief; Fesi; Fire Out; First Aid Research Chafe Away Medicated Healing; First Aid Research Zinc Oxyde Plus; First Aid Shot Therapy Cold Relief; Flanax; Flanax Cough Lozenges; Flanax Honey Eucalyptus; Flanax Pain Relief Kit; Flex-OL; Flex-all 454 10%; Flex-all 454 16% Gel; Flex-all 454 Gel 7%; Flex24 Pain; Flex24 Performance; FlexGen; Flexall Ice; Flexall Muscle (original Strength); Flexall Pain Relieving; Flexall Plus; Flexall Stick; Flexin; Flower O Life Pain Relieving Balm; Fluaid; Foot Rehab Pain relief and moisturizer Mission; Foot Works Achy Foot Massager Pain Relieving; Footscriptions Foot Repair; Formula T.T. Lozenges - 3.0mg; Formula T.T.O. Honey Lozenges; Formula45 Arthritis Blend; Fortify; Freezin Cold Toast; Friccilicont; Frozen Ice Fast Pain Relief; Fruit of the Earth Cool Blue Aloe Vera Cooling; Ft Crm Menthl Cvs; G-bucal-C; GADADERM Frozen Ice Advance Pain Relief; Genorthix Pain Relieving Roll On; Genuine Efficascent; Ginsenggo; Glacierix; Glenalgesic Blue Gel; Gold Bond Anti Itch; Gold Bond Anti-itch Lotion; Gold Bond Extra Strength; Gold Bond Extra Strength Medicated Body Lotion; Gold Bond Foot Extra Strength; Gold Bond Medicated Anti-itch Cream; Gold Bond Medicated Body Lotion; Gold Bond Medicated Body Powder; Gold Bond Medicated Foot; Gold Bond Original Strength; Gold Bond Pain Relieving Foot; Gold Bond Pain Relieving Foot Roll On; Golden Sunshine Far Infrared COOL Herbal; Golden Sunshine Far Infrared HOT Herbal; Golden Sunshine Far Infrared Herbal; Golden Sunshine Herbal; Good Neighbor Pharmacy Anti-Itch Steroid Free; Good Neighbor Pharmacy Cold and Hot Therapy Pain Relief Balm Extra Strength; Good Neighbor Pharmacy Muscle Rub Ultra Strength; Good Neighbor Pharmacy Therapeutic Blue; Good Neighbor pharmacy muscle rub; Good Sense Cool Heat; Good Sense Muscle; Goodsense Extra Strength Cold and Hot Medicated; Goodsense Extra Strength Cold and Hot medicated; Goose Grease; Goose Grease Recovery and Pain Relief; Gout Reliever Synergy; Gouttes Dentaires; GranuLotion; Green Apple Cough Drops; Green Bamboo; Green Guard Burn First Aid; Green Guard Cough Drop Relief; Green MINT Mouth Rinse; Gutong Tiegao Pain Relieving; HARMON Extra Strength Pain Relieving; HARMON Extra Strength Pain Relieving Roll-On; HASOL Anagen Hair Tonic; HASOL Anagen Scalp; HASOL Anti Hair Loss; HASOL Intensive Scalp Tonic; HASOL Vital For Hair-Loss Tonic; Half and Half Balm; Halls Apple Cider; Halls Butterscotch; Halls Centres Honey-lemon Loz; Halls Centres Reg Loz; Halls Centres Regular; Halls Cherry; Halls Extra Strong; Halls Extra Strong Cherry; Halls Extra Strong Mentho-lyptus Cough Tab; Halls Extra Strong Menthol; Halls Grape; Halls Honey; Halls Honey Lemon; Halls Ice Peppermint; Halls Kids Cherry; Halls Kids Strawberry; Halls Lemon-lime; Halls Lime; Halls MENTHO-LYPTUS; Halls Melon Splash; Halls Mentho Lyptus Cough Tab; Halls Mentho Lyptus Cough Tab Black Currant; Halls Mentho Lyptus Cough Tab Cherry; Halls Mentho Lyptus Cough Tab Honey Lemon; Halls Mentho Lyptus Cough Tab Regular; Halls Mentho Lyptus Tab Coolmint; Halls Mentho-lyptus Cough Tablets Black Currant; Halls Mentho-lyptus Cough Tablets Mountain Menthol; Halls Mentho-lyptus Cough Tablets Orange; Halls Mentho-lyptus Cough Tablets Peach; Halls Mentho-lyptus Cough Tablets Pink Grapefruit; Halls Mentho-lyptus Cough Tablets Pink Grapefruit/peach; Halls Menthol; Halls Mentholyptus; Halls Mint Bliss; Halls Mocha Mint; Halls Naturals Honey Lemon Chamomile; Halls Ocean Blue; Halls Orange; Halls Plus Cherry; Halls Plus Honey; Halls Plus Strawberry; Halls Spearmint; Halls Strawberry; Halls Sugar Free Assorted Mints; Halls Sugar Free Black Cherry; Halls Sugar Free Citrus Blend; Halls Sugar Free Extra Strong Menthol; Halls Sugar Free Honey Berry; Halls Sugar Free Honey Lemon; Halls Sugar Free Mountain Menthol; Halls Tropical Fruit; HallsMelon Splash Melon Splash; HallsSugar Free Extra Sugar Free Extra Strong Menthol; Han Honey Loquat Syrup; Hanbang Cataplasma; Handy Solutions Cool Mint LISTERINE ANTISEPTIC MOUTHWASH; Handy Solutions LISTERINE ANTISEPTIC MOUTHWASH; HealQu Warm Therapy Gel; Health Mart Extra Strength Pain Relief; Health Mart Muscle Rub; Health Mart Pain Relief; Health Mart muscle; Health Smart Blue Ice Topical Analgesic; Health Smart Medicated Body; Health Smart Medicated Foot; Health Smart Vaporizing Chest Rub; Healthy Accents Muscle Rub; Healthy Accents muscle ultra strength; Heat Rub; Hemo-pic; Herbal Cough Drop; Herbal Cough Drops; Herbal Heat; Herbal Menthol Cough Drop; Herbal Pain Relieving; Herbal UTAPLAS External Analgesic Plaster; Herbal UTAPLAS.TN; Herbal cough drops; Herbalgy; Herbion Naturals Cherry Cough Drops; Herbion Naturals Honey Lemon; Herbion Naturals Honey Lemon Cough Drops; Herbion Naturals Honey lemon Cough Drops; Herbion Naturals Honey lemon Cough Drops Sugar Free; Herbion Naturals Honey-Lemon Cough Drops; Herbion Naturals Mint Cough Drops; Herbion Naturals Mint Cough drops; Herbion Naturals Mint Cough drops Sugar Free; Herbion Naturals Orange; Herbion Naturals Orange Cough Drops; Herbion Naturals Orange Cough drops Sugar Free; Herbion Naturals orange Cough drops; Herpetrol; Hielo Ardiente; Ho Liang Kee; Home Farmacy; Honey Ginger Cough Drops; Honey Lemon Cough Drop; Honey Lemon Cough Drops; Honey Lemon Liquid Center Cough Drops; Honey Lemon Menthol Eucalyptus Cough Dps; Honey Lemon Sore Throat Lozenges; Honey Lemon Throat Drops; Honey Lemon cough drops; Honey Tulsi Cough Drops; Honey cough drop; Honey lemon menthol cough drop; Honey-lemon Cough Lozenges  - 8.4mg; Honibe; Horse; Hot Cold Lidocaine With Menthol; Hot Ice Soothing Analgesic; Hot Ice Soothing Analgesic Gel; Hot Pain Relieving; Hot and Cold Cream with Lidocaine- RA Pain Relieving; Hot and Cold Lidocaine with Menthol Patch Pain Relief; Hot and Cold Medicated Patch; Hot and Cold with Lidocaine Pain Relieving; Hot and Cold with Lidocaine-Careone Pain Relieving; Hot and Cold with Lidocaine-RA Pain Relieving; Hua Tuo Huo Lu Oil; Hua Tuo Medicated Plaster Extra Strength; Huitomi Slimming Sports; Human Science Muscle Pain Relief; Humphreys Bendito Alcoholado; Huo Pao Tieh Ta Feng Shin Kao; Hysan Hua Tuo Medicated Plaster; Hysan Huo Lu Medicated; Hysan Pain Reliever; Hyvee Antiseptic Blue Mint; Hyvee Antiseptic Mint; Hyvee Antiseptic Original; Hyvee Blue Mint; Hyvee Health Cool Blue Sugar Free; Hyvee Health Green Mint Sugar Free; ICE COLD Analgesic; ICE QUAKE Analgesic Cream White; ICE QUAKE MUSCLE RUB Blue Muscle Rub; ICYHOT Medicated; Ice; Ice ANALGESIC; Ice Cold Analgesic; Ice Cold Analgesic Gel; Ice Cold Topical Analgesic Gel; Ice External Analgesic Leader; Ice Gel 2.0%; Ice Gel Therapy 2%; Ice Quake; Ice Quake Muscle Rub; Ice Quake Plus; Ice Quake Roll On; Ice Quake White; Ice Therapy; Icy Blue; Icy Cold Cool Pain Relieving; Icy Cool Maximum Strength; Icy Freeze; Icy Hot; Icy Hot Advanced Relief; Icy Hot Arm Neck Leg and Small Areas; Icy Hot Arthritis; Icy Hot Back; Icy Hot Back and Large Areas; Icy Hot Lidocaine Pain Relieving Cream Plus Menthol; Icy Hot Medicated; Icy Hot Medicated Micro; Icy Hot Medicated No Mess Applicator; Icy Hot Medicated Roll Large; Icy Hot Medicated Roll Medium; Icy Hot Medicated Roll, Large; Icy Hot Medicated Roll, Medium; Icy Hot Medicated, Advanced Relief; Icy Hot Medicated, Back; Icy Hot Medicated, XL; Icy Hot Naturals; Icy Hot No Mess Vapor Cough Suppresant; Icy Hot No Mess Vapor Cough Suppresant for Kids; Icy Hot Power Gel; Icy Hot Vanishing Scent; Icy Hot XL Back and Large Areas; Icy Hot with Lidocaine Pain Relieving; Imada Four Seasons Safe Analgesic Balm; Imbue Pain Relief; Inarub Crm; Inflammation OTC Deep Pain Care Cold; Infraline Liq; Inno Rheuma Cream; InstaNatural Pain Relief Gel; Instant Therapy; Invisible Pain; Itch Nix; Itch Relief Cream; Ivy Dry; Ivy-Dry Super; J9 Ultra Advanced Eyebrow Serum; J9 Ultra Advanced Intensive Scalp Serum; Jack and Jill Rub; Jade; Jakemans Blueberry; Jakemans Cherry; Jakemans Peppermint; Jimin Zhuifeng Gao; Jin Gu Wang; Jivamukti; Joint Maintenance Compliance Kit; Joint and Muscle Pain; JointFlex ICE; Jun Wai Lung Medicine Pain relieving; K2 Cold Therapy; KGS Bao Zhen Gao Medicated Plaster Extra Strength; KGS Zhitong Gao Medicated Plaster Extra Strength; KINeSYS Analgesic Sport; KPP Triple Action; Kaewoon; Kama Sutra Pleasure Balm; Katinko Pain And Itch Relieving; Kay Medic Menthol Pain Relief; Kaz Inhalant; KeVUENO Pain Relieving; Kemagel Pain Relief; Keptrils; Keracare; Kerasal; Kerasal PF-10; Keratek; Kinkan; Kinkan Cool; Kiro Rub; Kiro-rub; Kiss Therapy Medicated Lip Balm; Kobi - Crm; Kool Comfort; Kool Comfort Pain Relieving Roll-On; Kroger Aloe Vera Pain Relieving; Kroger Maximum Strength; Kung Fu Pain Relief; Kwan Loong; Kwan Tak Hing Plaster - Pad-pls; Kymaro Roll on Relief; LBri Super Aloe Stop The Pain; LCDO. ORLANDO RIVERA ARTHRITIS Topical Analgesic; LEADER Cough Drops Cherry Flavor; LEADER Cough Drops Honey Lemon; LEADER Cough Drops Menthol Flavor; LEADER Sugar Free Cough Drops Black Cherry; La Jiao Feng Shi Gao; La Vaquita; La Vaquita Extra Strength; La Vaquita New Extra; La Vaquita New Regular; LaBella Linimento Obrero; Lactic Acid Free M Synergy for male; Lactic Acid Free for sportswoman Synergy for female; Lander Polar Ice; Lanoguard Multi-Purpose; Lantiseptic CaldaZinc; Lao Wei Wood Lock Oil; Lavaderm After Sun For Pain and Itching; Leader Extra Strength Medicated Pain Relief Patch; Leader Ice Blue Analgesic; Leader Medicated Relief Patch; Leader Pain Relieving Rub Ultra; Leader Ultra Strength Muscle Rub; Leader Ultra Strength Muscle Rub Topical Analgesic; Leader Ultra Strength Pain Relieving; Leg Strong Trifusion; Lekon Herbal Patch Green; LenzaGel; LenzaPatch; Leon Medical Muscle Rub Gel Muscle Rub; Levatio Patch; LevigoLT; LexiCaps; LexiLido; LidAll; Lidenza Patch; LidoPatch; LidoPatch Pain Relief; LidoPlus Pain Relief Patch; LidoPro; LidoPro Patch; LidoSport Pain Relief Patch; LidoXib; Lidocaine Pain Relief Patch; Lidonexe; Lidopatch; Lidopatch Pain Relief; Lidothal Relief; Lidothol; Lidozen; Limencin; Linkus Lozenges Cough Suppressant/Oral Anesthetic; Lip Clear Lysine Plus; Lip Conditioner Lip Balm; Lipsorex; Lipsorex - Gel; Lipsorex Plus; Lipsorex-gel; Listerine Advanced with Tartar Protection Antiseptic Citrus; Listerine Antiseptic; Listerine Cool Mint Antiseptic; Listerine FreshBurst Antiseptic; Listerine Naturals Antiseptic - Herbal Mint; Listerine Ultraclean Antiseptic Arctic Mint; Listerine Ultraclean Antiseptic Cool Mint; Listerine Ultraclean Antiseptic Fresh Citrus; Little Ouchies Little Remedies Pain Relief; Lorenza Pain Relief Patch; Lornamead Lypsyl; Lorpur; Lotion Pour Feux Sauvages; Low Sugar Cherry Flavor Fishermans Friend Menthol Cough Suppressant; Lucky Blue Ice; Lucky SuperSoft Muscle and Joint; Lucky Supersoft Premium; Ludens Honey Lemon Throat Drops; Ludens Honey Licorice Throat Drops; Ludens Original Menthol Throat Drops; Lurosil; Lusti Therapeutic Ice Analgesic Rub; Lysimax; MAXIMUM STRENGTH MEDICATED ANTI-ITCH Rite Aid; MD CELL Scalp; MEDI-FIRST Cherry Cough Drops; MEDIQUE Medikoff Drops; MHS Boo Boo Balm; MHS Dit Da Jow; MHS Herbal Ice; MHS Skin Care Salve; MHS Wong Family Iron Palm Jow; MMA Elite Pain Relief; MOMR Rumaian Herbal Bandage; MTX Topical Pain; MaC Patch; Magic For Pain Relief; Magical Muscle Oil; Major Extra Strength Cold and Hot Pain Relief Therapy; MakeSense Extra Strength Muscle Rub; Makesense With Aloe Vera and Vitamin E; Manteca Maslac; Marathon Deep Heat Rub; Marathon Pain Relief Topical Analgesic; Marco Rub Camphorated Ont; Marcs Blue Mint; Marcs Original; Marcs Spring Mint; Mastic Dent; Mata Balm; Max Revive; Max-Relief with Boswellia and Aloe Vera; MaxRevive Pain relieving; MaxRevive Plaster; Maxfit Freeze Gel; Maximum Strength Medicated Foot Powder; Maybelline New York Baby Lips Dr Rescue Medicated Balm; Md Cell; Med Aid Chest Rub; Medi First Plus Cherry Cough Drops; Medi-derm / L With Lidocaine; Medi-derm / L With Lidocaine Rx; Medi-derm Rx; Medi-derm Topical Pain Relief; Medi-first Burn First Aid; Medi-patch With Lidocaine; Medi-patch With Lidocaine Rx; Medi-sulting Topical Pain Relief; Medic Ice; Medicaine Sting and Bite; Medicaine Swabs; Medicated; Medicated Analgesic Cream; Medicated Anti-itch Well At Walgreens; Medicated Balm Arthritis Pain Relieving Cream; Medicated Blistex Dct Lip Balm; Medicated Body; Medicated Body Powder; Medicated Chest; Medicated Chest Rub; Medicated Chest Rub - Ont; Medicated Chest Rub - Ont Top; Medicated Chest Rub Family Wellness; Medicated Foot Powder; Medicated Green Oil; Medicated Lip Balm; Medicated Lipbalm; Medicated No Mess Applicator; Medicated Pain; Medicated Pain Relief; Medicated Pain Relief Hot; Medicated Pain Relief Patch; Medicated Pain Relief Patches; Medicated Vapourizer Fluid; Mediflex; Medique Sugar Free Medikoff Drops; Medistik Dual Hot and Cold; Medistik Ice; Medistik analgesic; Meditowel Pain Relief; Medrox; Medrox-Rx; Meggezones Menthol Pastilles; Megrix; Megrix OTC; Meijer Aloe Gel; Meijer Cherry Cough Drops; Meijer Cold and Hot Medicated; Meijer Cold and Hot Therapy; Meijer Extra Strength Cold and Hot Medicated; Meijer Honey Lemon Cough Drops; Meijer Menthol Cough Drops; Meijer Muscle Ultra; Meloids Pwr 1.5%; Men-Phor; MenCaps; Mencaine; Mendex; Menthacin - Cream; Menthacin Lotion; Menthocin Patch with Lidocaine - Strong; Menthol; Menthol Cough Drop; Menthol Cough Drops; Menthol Cough Lozenges - 6.1mg; Menthol Cough drop; Menthol Fresh Cough Suppressant; Menthol and Methyl Salicylate; Menthol and Zinc Oxide; Menthol cough drop; Menthol cough drops; Menthol, Capsaicin; Mentholatum; Mentholatum Cherry Vaporizing Rub; Mentholatum Cough Drops; Mentholatum Deep Heating Rub Extra Strength; Mentholatum Extra Strength Ont; Mentholatum Nighttime Vaporizing Rub; Mentholatum No Mess Vaporizing Rub; Mentholatum Original; Mentholatum Pain Relief Deep Heating; Mentholatum Pain Relief Extra Strength; Mentholatum Pain Relief Muscle Rub; Mentholatum Sports Pain Relief Cold; Mentholatum Sports Pain Relief Hot; Mentholatum Sports Pain Relief Warm; Mentholatum for Kids Cough Suppressant; Mentholix; Menticol first aid antiseptic and external analgesic lotion; Meridian Balm; Migranow; Minard's Joint Relief; Mineral Ice Pain Relieving; Mini Pain Relief; Miracle Foot Repair; Miracle Foot Repair Cream; Miracle Ice; Miracle Ice Arthritis Pain Reliever; Miracle Ice Therapeutic; Miracle Ice Ultra Strength; Miracle Pain Cream; Miracle Rub; Miracle of Aloe Rub Roll On; Miractil; Mobility Topical Analgesic; Moisture Therapy Anti-Itch; Monkey Holding Peach Brand External Analgesic Balm; Moore Medical Cherry Cough Suppressant/Anesthetic Drops; Moore Medical Honey Lemon Cough Drops; Moore Medical Menthol Eucalyptus Cough Drops; Moore Medical Sugar Free Black Cherry Cough Suppressant/Anesthetic Drops; Moore Medical Sugar Free Menthol Cough Suppressant/Anesthetic Drops; MooreBrand Assorted Cough Drops; Motion Medicine; Mountain Herb Sugar Free With Stevia Cough Suppressant Oral Anesthetic; Mouth Rinse; Mr Dudleys Topical Cycle Relief with Nutmeg; Mr Dudleys Topical Pain Relief; Muellergesic; Multi-action Denorex 2-IN-1 Dandruff Shampoo + Conditioner; Multi-action Denorex Dandruff Shampoo; Muscle; Muscle Ease; Muscle Mist; Muscle Rub; Muscle Rub CVS; Muscle Rub Cream; Muscle Rub Greaseless; Muscle Rub Maximum Strength; Muscle Rub Non Greasy Pain Relieving; Muscle Rub Premier Value; Muscle Rub Ultra; Muscle Rub Ultra Strength; Muscle Rub Ultra Strength CVS; Muscle Rub Ultra Strength Pain Relieving; Muscle and Joint; Muscle and Joint Pain Relief; Muscle and Joint Pain Relief Gel; Muscle and Joint Vanishing Scent Fast Penetrating; Muscle rub; MuscleCare Professional Therapy Pain Relieving; Muscular Balm; My Omega 3 Rub; MyOmega OMEGA 3PLUS PAIN RELIEF RUB; MyOmega Omega 3plus Targeted Relief; Myo-Breathe; MyoRx Low Dose Pain Relieving; MyoRx Pain Relieving; Myoflex Extra Strength Ice; Myoflex Ice Cold Gel 5%; Myoflex Ice Cold Plus - Gel; Myoflex Ice Cold-gel 4%; Myoflex Ice Plus - Crm; MÃ©di-rub; NAMMAN MUAY Athletes Pain Relieving; Nan San EASY FLEX Pain Relieving; Nan San MUSFLEX External Analgesic; NanoFreeze; Nasal Decongestant; Natoral Korean Ginseng; Natralia Anti-Itch Soothing; Natur 911; Natural Cherry Honey Herb Throat Drops; Natural Herbal Cough Drop; Natural Herbal Cough Drops; Natural Honey Herb Cough Suppressant Throat Drops; Natural Honey Lemon with Echinacea Cough Suppressant Throat Drops; Natural Lemon Mint Herb Throat Drops; Natural Lemon Verbena with White Tea Herb Throat Drops; Natural Pain Relieving Lavender Breeze Cryogel; Natural Throat Drops Honey; Natural Throat Drops Honey Lemon; Natural Throat Drops Honey Pomegranate; Natural herb cough drop; Nature's Relief 1222; Natures Choice Cool Hot Ice; Natures Realm Vaporizing Chest Rub; Natures Sunshine Products Everflex Topical Analgesic Pain Relief; Naturland Inno Rheuma Cream; Naturland Sports Cream; Neurolatore Power Formula Pain Relief; Neverpain; New Ammeltz; New NBF GINGIVAL Gel; New Premium Notamo; New Premium Notamo Tonic; New Terocin; Nice Assorted; Nice Cherry; Nice Citrus; Nice Cool Mint; Nice Honey Lemon; Nice Menthol; Nivea A Kiss of Intense Moisture Healing Medicated Lip Care; No Pain More Gain; No Touch Application Chest Rub Well at Walgreens; No Touch Chest Rub; Noble Lion Medicated Balm; Nopiate Topical Pain Relief; North Burn; North Cough Drop; Nosk EX Sleep; Nosmo King Smoking Deterrent; Nosmotea smoking deterrent; Novae Pain Relief Analgesic Lotion; Novarnica; Novarnica Foot Pain Reliever; Novarnica Moisturizing Foot Cream; NovoPain; Novum APR; NuDroxicin; NuDroxicin pain relief Roll-On; NuLido; Numotizine; ODEUR Senior Premium Cleanser; Obus Form Therapeutic Heat Rub; Obus Form Therapeutic Ice Gel; Odeur Premium Body Cleanser; Odynia-R Regular; Olbas Lozenges Maximun Strength; Olbas Pastilles; Olp Muscle Rub; Olp Pain-X; Omega 3 Targeted Relief; Omega Pain Relieving; One Gel Sport Pain relieving; Oneback; Onguent Camphre Menthol Alsi; Orajel Alcohol Free Antiseptic Rinse For All Mouth Sores; Orajel Antiseptic Rinse For All Mouth Sores; Orajel Cold Sore Moisturelock; Orajel Denture Pain Relief; Orajel Denture Plus; Orajel Instant Pain Relief Maximum; Orajel Instant Pain Relief Maximum Strength; Orajel Instant Pain Relief Severe; Orajel Instant Pain Relief Severe PM; Orajel Instant Pain Relief for Severe Toothache Maximum Strength; Orajel Instant Pain Reliver for Canker Sores Extra Strength Pain Relief; Orajel Maximum Strength; Orajel Multi-action Cold Sore Medicine; Orajel Ultra Canker Sore Medicine; Orajel for Codl Sores Relief and Concealer; Oral Analgesic Maximum Strength; Oral Care Antiseptic; Oral Dent Amber; Oral Dent Blue Mint; Oral Dent Citrus; Oral Dent Fresh Mint; Oral-dent Blue Mint; Orasep; Organix Complete; Original Antiseptic; Original Extra Strong All Natural Fishermans Friend Menthol Cough Suppressant; Ortho-Nesic; Ortho-Nesic With Capsaicin; OsmoFlex; Osteo Bi-Flex JOINT HEALTH PAIN RELIEVING; Osteoarthritica Synergy for treatment of Osteoarthritis; Overtime; Overtime-X; Oxy Rub Pain Relief; OxyRub Max Pain Relief Cream, 2oz; OxyRub Pain Relief; OxyRub Pro Pain Relief Cream, 4oz; PAIN Terminator Analgesic; PARAID Extra Strength Menthol Pain Relief Sleeve KNEE Large Ankles Elbows; PARAID Extra Strength Menthol Pain Relief Sleeve WRIST and Small Ankles and Elbows; PERFORM COOL and SOOTHING PAIN RELIEVING; PHS Hair Science Fem Hair Loss Tonic; PHS Hair Science Hom Hair Loss Tonic; PHS Hair Science Pro Hair Loss Tonic; Pain Bust R II; Pain Free; Pain Goodbye Medicated Cream; Pain Reileving Herbal Oil; Pain Release; Pain Relief; Pain Relief BalmPreferred Plus Ph Preferred Plus Pharmacy; Pain Relief Herbal; Pain Relief Herbal balm; Pain Relief Hot Patch; Pain Relief Liquid; Pain Relief Patch; Pain Relief Patches; Pain Relief Rub; Pain Relief Rub Iampur; Pain Relief Sleeve Extra Large; Pain Relief Sleeve Large; Pain Relief Sleeve Medium; Pain Relief Therapy Patch; Pain Relief Tincture; Pain Relief Well At Walgreens; Pain ReliefPatches Patches; Pain Reliever; Pain Relieving; Pain Relieving Analgesic; Pain Relieving Balm; Pain Relieving Chi Len Oil; Pain Relieving Iampur; Pain Relieving MUSFLEX; Pain Relieving Patch; Pain Relieving Patch Ultra Strength; Pain Relieving Patch Ultra Strength Ultra Strength; Pain Relieving Po Tong Oil; Pain Relieving Roll-On; Pain Relieving Ultra Strength; Pain releiving Well at Walgreens; Pain-A-Trate Extra Strength Pain-Relieving; Pain-A-trate Cream; Pain-ease; PainAway with natural peppermint and Balsam Peru; PainKoolers; PainKoolers Topical Analgesic; PainKoolers Topical Analgesic Patch; Painathol-MC Cool Penetrating Pain Relieving; Pallerix; Pallerix OTC BIOfrequency Chip; Panitrol XR; Paraid Pain Relief; Parche Leon Milagroso; Parche Leon Milagroso Dual Action; Pasmol Pain Relieving; Pastilles Valda; Patch; Patch Good Sense; Patch Kroger; Patch Scherer Labs; Patch Walgreens; Peppermint Cough Drops; Peppermint Mouth Rinse; PerCara Original Medicated Powder; Perfect Purity HotIce; Perfect Purity Medicated Body Powder; Perfect Purity Medicated Foot Powder; Perfect Purity Vaporizing Chest Rub; Perform; Perform Cool and Soothing Pain Relieving Foot; Perform Cool and Soothing Pain Relieving Roll-ON; Personal Care; Personal Care Extra Strength Cold Hot; Personal Care Ice Cold; Pharmacist Choice Pain Relief Patch; Pharmacist Choice TSX Transdermal Patch; Pharmacys Prescription; PharmapureRx Menthotral; Phoenix Balm; Phoenix KinetiCream Anti-inflammatory and Pain Relief; Phquirogel; Physi-cold; Physicians Care Cough and Sore Throat; Phyto Therapy; PhytoRelief CC HERBAL; Phytorub Ont; Plaster MandAHerbalPlaster; Po Sum On Healing Balm; Po Sum On Medicated; Pocket Farmacy; Point Relief LidoSpot; Polar Frost Cold; Polar Ice Analgesic Gel 2.5%; Pomada Dragon Pain Relieving; Pommade Au The Des Bois; Ponos Natural Pain Relief; Poudre; Power Relief; Poxiezzz; PrameGel; Preferred Plus Arthritis Cream; Preferred Plus Body Powder; Preferred Plus Medicated Lip Balm; Premier Value Medicated Body Powder; Premier Value Medicated Foot Powder; Premieres Pain; Pro-Flex; ProStat Burn First Aid; Procicept B Benzocaine 20%; Procicept L Lidocaine 4%; Professional Therapy Muscle Care Pain Relieving Gel by Dr. Chris Oswald Maximum Strength; Professional Therapy Muscle Care Pain Relieving Ointment by Dr. Chris Oswald Maximum Strength; Professional Therapy MuscleCare; Professional Therapy MuscleCare Extra Strength; Professional Therapy MuscleCare Pain Relieving; Professional Therapy MuscleCare Turbo; Professional Therapy MuscleCare pain relieving gel Extra Strength; Prolida; Prosync Muscle Rub; Protec Pain Relief Cold Therapy; Protec Roll-ON; Provenza; Prozero; Publix Burn Relief; Pulmoll Menthol - Eucalyptol Pastilles; Pulmoll Pastilles; Pumpkin Spice Cough Drops; Punchgunk; Puroxcin; Q Health Pain Relief; QC Cold and Hot Pain Relief; Quali Cold; Quali Herbal; Quali Warm; Quality Choice Amber; Quality Choice Blue Mint; Quality Choice Muscle and Joint; Quality Choice Sprng Mint; Quantum Health Bing Cherry Flavor; Quantum Health Meyer Lemon and Honey Flavor; QuickFlex; REMEDY Calazime Skin Protectant; Ramedica; Raw Heat; Raw Ice; Ray Dol; Re-leve; Reactice Reactivating Ice Baume; Real Time Pain Relief Topical Analgesic; Recovery; Red Lion Relief; Red Oil; Reed Therapeutics Pain Relieving Therapy; Refined Gou Pi Pain Relieving Plaster; Rejuvaflex Natural Pain Relieving; Releevia; Releevia LM Patch; Releevia MC; Relexo Oil; Reliaderm; Relief Balm; Relief Pain Relieving Cream; Reliever; Relyyks Patch; Relyyt Patch; Rematex; Reme D; Remedy Phytoplex Calazime Protectant; Renewal Medicated; Renovo; Renovo Lido5; Retadolor; Retadolor Penetrating Cool Therapy; Revalife; Rexall Vanishing Scent Pain Relieving; Rhemu; Rheumatica Synergy for treatment of Rheumatitis; Rhino-vaccin; Rhuli Gel; Rhulief Pain Relieving Balm; Richennapharm Growmax Hair Care Tonic; Ricora; Rinse; Rite Aid; Rite Aid Cold and Hot Medicated; Rite Aid Extra Strength Pain Relief Cold and Hot Medicated; Rite Aid Soothing Medicated Anit-Itch; Rite Aid Ultra Strength Muscle Rub; Road to Wellness; Robitussin Medi-Soothers Cough DM; Rocainol TOPICAL ANALGESIC; Rock Sauce; Rock Sauce Chill (no color); Rocksauce Fire; Rocksauce Ice; Rolling Farmacy; Rotex; Royal Mouthwash Fresh and Clean Original Mint; Rubbex Creme; Rugby Cooling Pain; Rugby Ice Blue External Analgesic; Rugby Pain Relieving Analgesic; SE Sport Endurance Pain Freeze Recovery; SF Black Cherry Cough Drops; SF Cherry Cough Drop; SF Cherry Cough Drops; SF Honey Lemon Cough Drop; SF Honey Lemon Cough Drops; SF Menthol Cough Drop; SF Menthol Cough Drops; SF menthol cough drop; SINSINPAS Pain Relieving Patch; SMITH BROS HONEY LEMON Cough Drops; SMITH BROS MENTHOL EUCALYPTUS Cough Drops; SMITH BROS Sugar-Free BLACK CHERRY Cough Drops; Salonpas; Salonpas - Pls Top; Salonpas Arthritis Pain; Salonpas DEEP Relieving; Salonpas Gel-patch; Salonpas Medicated Plaster; Salonpas Pain Relief; Salonpas Pain Relieving; Salonpas pain relieving JET; Salonpas pain relieving MASSAGE; Sarna; Sarna P; Satogesic; Satohap; Savex Ont; Savex With Paba; Savex With Sunscreen Ont; Sc Herbal Pain Relieving; Sc Pain Relief Balm; Scal-tonic intensive liquid hair care; Scalpicin Anti-dandruff Anti-itch Liquid; Screamin Menthol Toast; Seldicine (Massage Cream); Select Brand Anti-Itch; Sella Natural; Shang Shi Zhi Tong Gao; Shang Shi Zhi Tong Pain Relieving Plaster; Shanghai Shang Shi Zhi Tong Gao Pain Relieving; Shao Lin Gao Pain Relieving Plaster; Shao Lin Pain Relief Plaster; Shaping with workout - loose skin revitalizer; Shelo NABEL Arnica Gel; Shelo NABEL Gel para Golpes; Shelo NABEL Hielo Mineral; Shelo NABEL Pomada Arnica; Shelo NABEL TherapyGel; Shelo NABEL Vibora de Cascabel Topical Analgesic Gel 250 ml; Sheng Chun Herbal Pain Relieving; Sheng Chun Pain Relief; Shennong Analgesic Plaster; Shopko Medicated Lip Treatment; Shu Jin Lu; Shuang Long Pain Relieving Oil; Sigform Herbal Muscle; Sigform Herbal Muscle Mist; Signature Care Cold and Hot Medicated; Signature Care Cool Heat; Silvera Pain Relief Patch; Simanix; Sincere Pain Relief; Sinsin Mulpas; Sinsinpap Cool; Sintong; Siterol; Skin So Soft Bug Guard Plusitch Relief Itch Relief; Smart Pro Medicated Analgesic Pain Relieving Cataplasm; Smart Sense Blue Mint; Smart Sense Citrus; Smart Sense Cold and Hot Extra Strength Medicated; Smart Sense Cool Heat; Smart Sense Iceberg Blue; Smart Sense Original Flavor; Smart Sense Spring Mint; Smart Sense Ultra Strength; SmartRx Gaba Kit; SmartRx Gaba-V Kit; Sno Swedish Arctic Gel Recovery; Sno Swedish Arctic Gel Relief; Sno Swedish Arctic Gel Support; Sof Skin Icy Blue; Sof Skin Vaporizing Chest Rub and Cough Suppressant; Sofskin Ice Analgesic; Soft Mint Listerine Antiseptic; Solmara; Solstice Medicine Company Pain Relief; Sombra Cool Therapy; Sombra Warm Therapy; Sooth X Creme - 1.25%; Soothanol X2; Soothee Patch; Soothing Ice Rub; Soothing Ice Rub Analgesic Gel; Soothing Menthol Lip Care; Sore No More; Sore No More Cool Therapy; Sore No More Warm Therapy; Sore Throat Logenzes Sore Throat; Sore Throat Lozenges Menthol Flavour; Sore Throat Relief Cherry Flavor; Sorgon; Sound Body Extra Strength Cold and Hot; Sound Body Extra Strength Cold and Hot Medicated; Sport Cold  -  Gel - 2%; Sport Rub  -  Cream; Sports Balm; Sting-Kill; Stopain Clinical; Stopain Clinical Roll-On; Stopain Cold Pain Relieving; Stopain Cold Professional Strength Pain Relieving; Stopain Extra Strength Pain Relieving; Strain Pain Relieving Cream; Strawberry Cough Drop; Strawberry Cough Drops; Strepsils Cherry; Strepsils Cool; Strepsils Extra Black Cherry; Strepsils Sore Throat Blocked Nose; Stressa Back and Neck Pain Relieving; Studio 35 External Analgesic Medicated Body; Studio 35 Medicated Body; Studio35 Extra Strength Medicated Body; Sub-zero Cool Pain Relieving; Sucrets Cherry Vapour Action Loz; Sucrets Complete; Sucrets Complete Cool Citrus; Sucrets Complete Sore Throat, Cough and Irritation; Sucrets Complete Vapor Cherry; Sucrets Herbal Berry Pomegranate; Sucrets Herbal Honey Lemon Ginseng; Sucrets Honey Lemon Vapour Action Loz; Sucrets Ice Grape; Sucrets Ice Pomegranate; Sugar Free Cherry Cough Drops; Sugar Free Cherry Fishermans Friend Menthol Cough Suppressant; Sugar Free Cherry Herb Throat Drops; Sugar Free Green Tea With Echinacea Cough Suppressant Throat Drops; Sugar Free Hiney Lemon Cough Drops; Sugar Free Honey Lemon Cough Drop; Sugar Free Honey Lemon Cough Drops; Sugar Free Lemon Mint Herb Throat Drops; Sugar Free Menthol Cough Drop; Sugar Free Menthol Cough Drops; Sugar Free Menthol cough drop; Sugar Free Menthol cough drops; Sugar Free Mountain Herb Cough Suppressant Throat Drops; Sugar Free Original Swiss Herb Cough Suppressant Throat Drops; Sugar Free Refreshing Mint Fishermans Friend Menthol Cough Suppressant; Sugar Free Swiss Cherry Herb Throat Drops; Sugar Free menthol cough drop; Sugar free menthol cough drop; Sun Burn Relief Cream; Sun Moon Star Pain Relieving; Sunmark Muscle Rub; Sunmark muscle rub; Super Lysine plus; Superior Analgesic; Suppress Ointment; Sweet Comfort; Synergy Booster; Synvexia; Synvexia TC; TOKUHON-A External Analgesic Pain Relieving Medicated; TOKUHON-A External Pain Relieving Medicated; Tact; Tact Cool Jelly; Tartar Control; Tartar Control Plus; Tartar control; Tartar control plus; Teeter ReNew Pain Relief; Teeter Renew Muscles Pain Relieving; Teeter reNEW MUSCLES Pain Relieving; Tendinitica Synergy for treatment of Tendinitis; Terocin; TerraFreeze Pain Relief; Terrasil Itch, Rash and Pain Relief; Tetramex; Thai Herbal Balm Lavender; Thai Herbal Balm Lemon Grass; The Fresh Market Medicated Lip Balm Soothing With Menthol Eucalyptus Oil And Clove; The Medicine Shoppe Extra Strength Pain Relieving; The Original Natural Herb Cough Drops; Thera Patch; TheraDerm Pain Relieving Patch; TheraPlus Plus; Therafreeze; Theragesic Creme; Theragesic Plus; Theraid; Therapatch Vapor - Chest; Therapatch Vapour - Nose & Chin; Therapeutic Heat Lotion; Therapeutic Icy Cold Cooling Pain Relief; Therapeutic Icy Cold Cooling Pain Relief Roll-ON; Therapeutic Relief Preferred Plus Pharmacy; Therapeutic Soothing Ice Gel; Therapy Pain; Therapytion Natural Deep Clean; Therapytion Natural Relaxing; Theraseptin; Thermo Rub Ont; Thritex; Throat Coat; Throat Relief Lozenges; Throat and Chest Anise and Menthol; Throat and Chest Berry Menthol; Throat and Chest Chili and Lime; Throat and Chest Honey Lemon and Menthol; Thuna Balsam Salve Ont; Thunas Salve for Rheumatic Pains; Tianhe Guben Yaoshen Tie Gao; Tianhe Gutong Tiegao; Tianhe Gutong Tiegao (in Polyisobutylene Carrier); Tianhe Zhuanggu Gao; Tianhe Zhuifeng Gao; Tibet Gigi Itch Relief Cream; Tiger Balm; Tiger Balm Arthritis Rub; Tiger Balm Muscle Rub Pain Relieving; Tiger Balm Neck and Shoulder Rub; Tiger Balm Red Extra Strength; Tiger Balm Ultra Strength; Tiger Balm Ultra Thin; Tiger Balm White Regular Strength; Tokuhon Medicated Plaster; Tong Luo Qu Tong Gao; Top Care Medicated; Top Medicated; Top Medicated Pain Relieving; TopCare Cough Relief Honey Lemon Flavor; TopCare Cough Relief Sugar Free Cherry Flavor; TopCare Medicated; TopCare Sore Throat Cherry Flavor; TopCare Sore Throat Honey Lemon Flavor; Topcare Pain Relieving 40ct; TopiCool Pain Relief with Cats Claw; Topical Analgesic Gel; Topical Edge; Topical Pain Relief; Topical Pain Relief Rx; Tpr20; Trans-D; Transanosil; Trauma Less; Traveling Farmacy; TriMotion Pain Relief; Triaminic Night Time Rub; Triaminic Vapour Patch; Triple Action Arthritis; Triple Power Pain Relief; True Essentials Pain Relief Roll On; True Pain Relief Plus; Ultimate Lidocaine Pain Relief Patch; Ultimate Topical Pain Relief Patch; Ultra Balm; Ultra Strength Heat Rub; Ultra Strength Pain Relief; Ultra Strength Pain Relief Balm; Ultra Strength Stopain Pain Relieving; Ultra Therapy Pain Relief; Ultracin; Ultracin M; Up and Up Hot and Cold Medicated; Valda Pastilles; Valda Pastilles Lemon Flavoured; Valtrum Soothing Topical Analgesic; Valtrum US Aerobic Sport IMMEDIATE ACTION; Valtrum US Soothing Topical Analgesic; Vanishing Scent Muscle Rub Gel; Vantelin Cool Pain Relieving; Vantelin Cool Pain Relieving Gel Patch; Vantelin Cool Pain Relieving Gel Patch Large; Vapor Plus; Vaporex; Vaporisateur Medicamente; Vaporizing Chest; Vaporizing Chest Rub; Vaporizing Chest Rub Cough Supressant; Vaporizing Colds Rub; Vaporizing Colds Rub - Ont; Vaporx Balm; Vapour Rub; Vapourizing Chest Rub; Vaseline Brand Lip Therapy Medicated Tube; Velatrin Pain Relief; Velma Pain Relief Patch; Veltrix; Venia Patch Premium Pain Patch; Vicks Blue Throat Drops 0.3%; Vicks Blue Throat Drops Loz 0.307%; Vicks Vapo Rub; Vicks VapoDrops Cough Relief; Vicks VapoRub; Vicks VapoRub Lavender Scent; Vicks VapoRub childrens; Vicks Vaporub; Vicks Vaposyrup Liq 0.125%; VitaCin; Vitabrid C12 Hair Tonic Professional; Vitabrid C12 Hair Tonic Scalp Relief; Vitabrid Scalp; Vital Vapor; Vitaminerals Inc. Cryogel Natural Pain Relieving; Vitapirena; Walgreen Vanishing Scent Muscle and Joint; Walgreens Aloe Vera Cooling; Walgreens Aloe Vera Pain Relieving; Walgreens Chest Rub; Walgreens Cool N Heat Therapy Pain Relief Stick; Walgreens Cool and Heat Muscle and Joint Relief; Walgreens Cool n Heat Muscle and Joint Pain Relief Extra Strength; Walgreens Medicated Pain Relieving; Walgreens Moisture Barrier; Walgreens Muscle Rub Ulra Strength; Walgreens PAIN RELIEVING; Warming Epsom Rub; Watermelon Frost Sore Throat; Watkins Analgesic Balm; Weh-Weh Pain reliever gel; Welby Hot and Cold Medicated Patch; Welby Medicated Relief Patch; WellPatch Backache Pain Relief; WellPatch Cooling Pain Relief; Western Family Pain Relieving; White Flower Analgesic Balm; White Flower Analgesic Balm Floral Scented; White Flower Ointment; White Flower Strain Relief; White Real Time Pain Relief Topical Analgesic; WinCo Extra Strength Cold and Hot Medicated; Wintermint Cough Drops; Wok Lok Pain Relieving Oil; Womens Relief Balm; Womens Sports Balm; Wong To Yick External Analgesic; Wrigley's Alpine; Wrigley's Alpine Cherry; Wu Yang Brand Medicated Plaster; X Ray Pain Relieving; X-seb T Plus Conditioning Shampoo; X-tar Shampoo; Xjow; Xoten-C; Xpacaine; XtraCare Ice Cold Topical Analgesic Gel; XtraCare Vaporizing Chest Rub; Xyphex Biofrequency Chip; Yao Shen Gao Pain Relieving Plaster; You Plus Relief Pain Relieving; You Relief Muscle and Joint Rub; Youngevity Invision CM; Your Logo Here Burn First Aid; Yu Long You Pain Relieving; Yun Xiang Jing; Z-plus Shampoo; Zepol Topical Analgesic; Zheng Gu Shui; Zhenweilong Huoluo You External Analgesic; Zhong Hua Feng Shi Die Da Gao; Zhong Hua Feng Shi Die Da Gao External Analgesic Plaster; Zhong Hua Jiu Patch; Zhuang Gu Feng Shi Pain Relieving Plaster; Zhuang Gu She Xiang Zhi Tong Gao; Zhuanggu Shexiang Zhitonggao Pain Relieving Plaster; Zihua Embrocation Cooling Pain Relief; Zihuadick Pain relieving; Ziks Arthritis Pain Relief; Zilactin-lip (regular and Cherry Flavour); Zims Arnica Max; Zims Lido Freeze; Zims Max Freeze; Zims Max Freeze Continuous; Zostrix Hot and Cold Therapy System; Zostrix Joint and Arthritis Pain Relief; Zzip Cold Sore Treatment; bB Medicated Pain Relieving Oil; dynaFreeze; eez-away RELIEF

>  <SECONDARY_ACCESSION_NUMBERS>  (1) 
APRD01604

>  <SMILES>  (1) 
CC(C)[C@@H]1CC[C@@H](C)C[C@H]1O

>  <SYNONYMS>  (1) 
Levomenthol

$$$$
