
     RDKit          2D

  9  8  0  0  0  0  0  0  0  0999 V2000
    2.0930   -0.2063    0.0000 O   0  0  0  0  0  0  0  0  0  0  0  0
    2.8075    0.2063    0.0000 C   0  0  0  0  0  0  0  0  0  0  0  0
    3.5219   -0.2063    0.0000 C   0  0  0  0  0  0  0  0  0  0  0  0
    0.0000    0.0000    0.0000 H   0  0  0  0  0  0  0  0  0  0  0  0
    0.0000    0.0000    0.0000 H   0  0  0  0  0  0  0  0  0  0  0  0
    0.0000    0.0000    0.0000 H   0  0  0  0  0  0  0  0  0  0  0  0
    0.0000    0.0000    0.0000 H   0  0  0  0  0  0  0  0  0  0  0  0
    0.0000    0.0000    0.0000 H   0  0  0  0  0  0  0  0  0  0  0  0
    0.0000    0.0000    0.0000 H   0  0  0  0  0  0  0  0  0  0  0  0
  1  2  1  0
  2  3  1  0
  1  4  1  0
  2  5  1  0
  2  6  1  0
  3  7  1  0
  3  8  1  0
  3  9  1  0
M  END
>  <ALOGPS_LOGP>  (1) 
-0.40

>  <ALOGPS_LOGS>  (1) 
1.10

>  <ALOGPS_SOLUBILITY>  (1) 
5.79e+02 g/l

>  <DATABASE_ID>  (1) 
DB00898

>  <DATABASE_NAME>  (1) 
drugbank

>  <DRUGBANK_ID>  (1) 
DB00898

>  <DRUG_GROUPS>  (1) 
approved

>  <EXACT_MASS>  (1) 
46.041864814

>  <FORMULA>  (1) 
C2H6O

>  <GENERIC_NAME>  (1) 
Ethanol

>  <INCHI_IDENTIFIER>  (1) 
InChI=1S/C2H6O/c1-2-3/h3H,2H2,1H3

>  <INCHI_KEY>  (1) 
LFQSCWFLJHTTHZ-UHFFFAOYSA-N

>  <INTERNATIONAL_BRANDS>  (1) 
Dehydrated ethanol

>  <JCHEM_ACCEPTOR_COUNT>  (1) 
1

>  <JCHEM_AVERAGE_POLARIZABILITY>  (1) 
5.303762677439431

>  <JCHEM_BIOAVAILABILITY>  (1) 
1

>  <JCHEM_DONOR_COUNT>  (1) 
1

>  <JCHEM_FORMAL_CHARGE>  (1) 
0

>  <JCHEM_GHOSE_FILTER>  (1) 
0

>  <JCHEM_IUPAC>  (1) 
ethanol

>  <JCHEM_LOGP>  (1) 
-0.1617691140000001

>  <JCHEM_MDDR_LIKE_RULE>  (1) 
0

>  <JCHEM_NUMBER_OF_RINGS>  (1) 
0

>  <JCHEM_PHYSIOLOGICAL_CHARGE>  (1) 
0

>  <JCHEM_PKA_STRONGEST_ACIDIC>  (1) 
16.47061524791562

>  <JCHEM_PKA_STRONGEST_BASIC>  (1) 
-2.155552890561707

>  <JCHEM_POLAR_SURFACE_AREA>  (1) 
20.23

>  <JCHEM_REFRACTIVITY>  (1) 
13.0099

>  <JCHEM_ROTATABLE_BOND_COUNT>  (1) 
0

>  <JCHEM_RULE_OF_FIVE>  (1) 
1

>  <JCHEM_TRADITIONAL_IUPAC>  (1) 
ethyl alcohol

>  <JCHEM_VEBER_RULE>  (1) 
1

>  <MOLECULAR_WEIGHT>  (1) 
46.0684

>  <PRODUCTS>  (1) 
1.8oz Armstrong Hand Sanitizer with Aloe Vera and Vitamin E; 1.8oz Hand Sanitizer With Clip -assorted; 10 Person ANSI; 2 Pack Assured Instant Hand Sanitizer with moisturizers (Vitamin E and aloe); 2 Pack Assured Instant Hand Sanitizer with moisturizers (Vitamin E and aloe) lemon scented; 2-Pack Hand Sanitizer; 25 Person ANSI; 2pk 2oz Hand Sanitiizer-aloe Vera; 3 Hand Sanitizers; 3 Hand Sanitizers Kit; 3 Pack Assured Instant Hand Sanitizer with moisturizers (Vitamin E and aloe) lemon scented; 3 Pack Assured Instant Hand Sanitizer with moisturizers (Vitamin E and moisturizers) lavender scented; 3 Pack Assured Instant Hand Sanitizer with moisturizers (aloe vera and moisturizers); 3 Pack Family Dollar instant Hand Sanitizers; 3 Pack Instant Hand Sanitizer with moisturizers; 3 Pack Instant Hand Sanitizer with moisturizers Aloe Scented; 3 Pack Instant Hand Sanitizer with moisturizers Lavender Scented; 3M Avagard; 3M Avagard D; 3M Avagard Foam; 3M Avagard Foaming Instant Hand Antiseptic; 3M Avagard Instant Hand Antiseptic with Moisturizers; 3P Instant Hand Sanitizer; 50 Person ANSI; 7 Select Instant Hand Sanitizer with Vitamin E and Moisturizers; 7-11 Instant Hand Sanitizer With Aloe And Vitamin E; 8oz Hand Sanitizer With Pump; A.B.H.C. Instant Hand Sanitizer Citrus Scent; ACME FIRST AID Contains 404 PIECES; AEROCLEANSE Instant Hand Sanitizer; AMP Instant Hand Sanitizer; AOGel; AOGel Hand Sanitizer Kids; AP HanSan; APRIL Bath and Shower Cucumber Melon Scented Antibacterial HAND SANITIZER; APRIL Bath and Shower Sweet Pea Scented Antibacterial HAND SANITIZER; APRIL Bath and Shower Warm Vanilla Sugar Scented Antibacterial HAND SANITIZER; ARC FIRST AID Contains 1000 PIECES; ARC FIRST AID Contains 404 PIECES; ASSURED Instant Hand Sanitizer WITH MOISTURIZERS Aloe Vera and Moisturizers; ASSURED Instant Hand Sanitizer WITH MOISTURIZERS Vitamin E and Aloe; Acqua Aroma Hand Sanitizer Gel; Actigel Hand Sanitizer; Actiprep; Actiprep Preoperative Skin Preparation; ActiveClean; Advanced; Advanced Hand Sanitizer; Advanced Hand Sanitizer Berries; Advanced Hand Sanitizer Lavender; Advanced Hand Sanitizer Natural Aloe; Advanced Hand Sanitizer Vitamin E; Adventure First Aid .5 Tin; Adventure First Aid Water Resistant; After Bite Wipe; Aftermath Hand Sanitizer; Aidplus Alcohol Cleansing Pad; Aidplus Sting Relief Prep Pad; Aire-Master; Aire-Master Sanitizer Gel vit e/a; Akileine Vaporisateur Antitranspirant; Al CaFoam; Alcare Extra Hand Sanitizer; Alcare Foamed Antiseptic Handrub; Alcare OR Foamed Antiseptic Handrub; Alcare Plus Foamed Antiseptic Handrub; Alco Hand Sanitizer; Alco San; Alco-gel  - Top 60%; Alco-san Instant Skin Sanitizer; Alcogel; Alcohol; Alcohol 5% and Dextrose 5% Inj USP; Alcohol 5% and Dextrose 5% Injection USP; Alcohol Cleansing Pad; Alcohol Disinfecting Wipe; Alcohol Foaming Hand Sanitizer; Alcohol Prep Pad; Alcohol Wipes; Alcohol swab; Alcorub (rubbing Alcohol Compound); Alcoscrub Foam; Alcoscrub Hand Cleaner; Algonquin FoamSan; Algonquin HanSan; All Day Hand Sanitizer Ultra; All Fresh by Alsco Instant Mist Hand Sanitizer; Almond Antibacterial Hand Sanitizer; Aloe Scent A B Hand Sanitizing; Aloe Touch; Alpet E3 Plus Hand Sanitizer Spray; Alpha E-3; Alpha E-3 Instant Hand Sanitizer; Altitude Medical Hand Sanitizer; AltitudeMedical HAND ANTIBACTERIAL; AmeriDerm Foam Alcohol Hand Sanitizer; American Continental Techlabs, LLC INSTANT HAND SANITIZER; American Infection Control Antiseptic Body Wipes; American Infection Control Antiseptic Hand Wipes; American Red Cross First Aid Kit; Ammonia Inhalants; Amoray Premium Instant Hand Sanitizer With Aloe and Vitamin E Fresh Citrus; Amoray Premium Instant Hand Sanitizer With Aloe and Vitamin E Lavender; Amoray Premium Instant Hand Sanitizer With Aloe and Vitamin E Original; Amoray Premium Instant Hand Sanitizer With Aloe and Vitamin E Strawberry; Amoveo 80%; Amoveo Original; Amoveo Unscented; Angel Falls Hand Sanitizer; Angel Foodcake Hand Sanitizer; Aniosgel 85 Npc; Anti Bacterial Hand Sanitizer; Anti-Bacterial Hand A Thousand Wishes; Anti-Bacterial Hand Adork-Able Cool Breeze; Anti-Bacterial Hand Aromatherapy Stress Relief Eucalyptus Spearmint; Anti-Bacterial Hand Autumn Owl Cranberry Apple; Anti-Bacterial Hand Autumn Vines Wine Not; Anti-Bacterial Hand BFF; Anti-Bacterial Hand Bae Watch Beach Breeze; Anti-Bacterial Hand Bali Coconut Cove; Anti-Bacterial Hand Be Joyful; Anti-Bacterial Hand BeYouTiful; Anti-Bacterial Hand Beach Bellini; Anti-Bacterial Hand Beach House; Anti-Bacterial Hand Beach Please; Anti-Bacterial Hand Beautiful Day; Anti-Bacterial Hand Believe Pink Citrus; Anti-Bacterial Hand Bermuda Plumeria Sunrise; Anti-Bacterial Hand Berry Scary Ghoul Friend; Anti-Bacterial Hand Best Friends; Anti-Bacterial Hand Black Cherry Merlot; Anti-Bacterial Hand Blushing Tulips and Peonies; Anti-Bacterial Hand Boardwalk Vanilla Cone; Anti-Bacterial Hand Boo Ghostly Raspberry; Anti-Bacterial Hand Bourbon Street Buttercream; Anti-Bacterial Hand Bright Autumn Day; Anti-Bacterial Hand Cactus Flower and Coconut; Anti-Bacterial Hand California Citrus Sunshine; Anti-Bacterial Hand Candy Cane Bliss; Anti-Bacterial Hand Caribbean Escape; Anti-Bacterial Hand Champagne Sparkle; Anti-Bacterial Hand Charming Chick Sweet Strawberry; Anti-Bacterial Hand Check Meowt Pomegranate; Anti-Bacterial Hand Cheers to Being Fabulous; Anti-Bacterial Hand Cherry Champagne Toast; Anti-Bacterial Hand Chill Out Sea Breeze; Anti-Bacterial Hand Christmas Morning; Anti-Bacterial Hand Cinnamon Spiced Vanilla; Anti-Bacterial Hand Citrus Sunshine; Anti-Bacterial Hand Cocoa Mint; Anti-Bacterial Hand Cocoloco; Anti-Bacterial Hand Coconut Cooler; Anti-Bacterial Hand Coconut Lime Verbena; Anti-Bacterial Hand Coconut Pumpkin Latte; Anti-Bacterial Hand Cool Coconut Colada; Anti-Bacterial Hand Copacabana Coconut; Anti-Bacterial Hand Cozy Vanilla Cream; Anti-Bacterial Hand Crisp Morning Air; Anti-Bacterial Hand Cucumber Mint; Anti-Bacterial Hand Dancing Waters; Anti-Bacterial Hand Dazzling Diamonds; Anti-Bacterial Hand Donut Judge Me; Anti-Bacterial Hand Dreamer; Anti-Bacterial Hand Easy Peasy Lemon Squeezy; Anti-Bacterial Hand Electric Mango; Anti-Bacterial Hand Elfin Around; Anti-Bacterial Hand Emoji Series; Anti-Bacterial Hand Endless Weekend; Anti-Bacterial Hand Fa La La La Llama; Anti-Bacterial Hand Fall Lakeside Breeze; Anti-Bacterial Hand Feast Mode; Anti-Bacterial Hand Feelin Lucky Apple; Anti-Bacterial Hand Fiji White Sands; Anti-Bacterial Hand Firework Fizz; Anti-Bacterial Hand Flawless; Anti-Bacterial Hand Fleece Navidad; Anti-Bacterial Hand French Kiss Berry; Anti-Bacterial Hand Fresh Balsam; Anti-Bacterial Hand Fresh Lemon Daisy; Anti-Bacterial Hand Fresh Market Apple; Anti-Bacterial Hand Fresh Sparkling Snow; Anti-Bacterial Hand Fresh Strawberries; Anti-Bacterial Hand Fresh Watermelon Lemonade; Anti-Bacterial Hand Fri Yay; Anti-Bacterial Hand Frosted Coconut Snowball; Anti-Bacterial Hand Frosted Cranberry; Anti-Bacterial Hand Gardenia Spring Rain; Anti-Bacterial Hand Gel; Anti-Bacterial Hand Gel Apple Pie; Anti-Bacterial Hand Gel Candy Apple; Anti-Bacterial Hand Gel Caribbean Escape; Anti-Bacterial Hand Gel Cotton Candy; Anti-Bacterial Hand Gel Fresh Picked Strawberries; Anti-Bacterial Hand Gel Mango Madness; Anti-Bacterial Hand Gel Pink Lemonade; Anti-Bacterial Hand Gel Sweet Pea; Anti-Bacterial Hand Gel Vanilla Cupcake; Anti-Bacterial Hand Georgia Peach; Anti-Bacterial Hand Girl Boss; Anti-Bacterial Hand Girls Just Want to Have Sun; Anti-Bacterial Hand Give Thanks; Anti-Bacterial Hand Golden Autumn Day; Anti-Bacterial Hand Golden Pineapple Luau; Anti-Bacterial Hand Good Vibes Only Coconut; Anti-Bacterial Hand Green Goddess; Anti-Bacterial Hand Happy Easter; Anti-Bacterial Hand Harvest Mouse Citrus; Anti-Bacterial Hand Hawaii Honolulu Sun; Anti-Bacterial Hand Hawaiian Pink Hibiscus; Anti-Bacterial Hand Heart of Gold Berry Sweet; Anti-Bacterial Hand Hello Beautiful; Anti-Bacterial Hand Help Me Cranberry Sauce; Anti-Bacterial Hand Hogs and Kisses; Anti-Bacterial Hand Honeydew Cooler; Anti-Bacterial Hand Honolulu Sun; Anti-Bacterial Hand Hoot Eerie Pear; Anti-Bacterial Hand Hula Girl; Anti-Bacterial Hand I Donut Care; Anti-Bacterial Hand I Got It From My Mama; Anti-Bacterial Hand I Love Glitter; Anti-Bacterial Hand I Need Space Cosmic Berry; Anti-Bacterial Hand I Need a Snow Day; Anti-Bacterial Hand Iced Guava Colada; Anti-Bacterial Hand Iced White Pomegranate; Anti-Bacterial Hand Im Smitten; Anti-Bacterial Hand Im So Fancy Raspberry Sparkle; Anti-Bacterial Hand Island Margarita; Anti-Bacterial Hand Italy Tuscan Lemon Tart; Anti-Bacterial Hand Jamaica Pineapple Colada; Anti-Bacterial Hand Japanese Cherry Blossom; Anti-Bacterial Hand Jawesome Sea Breeze; Anti-Bacterial Hand Jingle All the Way; Anti-Bacterial Hand Jingle Bell Berry; Anti-Bacterial Hand Juicy Georgia Peach; Anti-Bacterial Hand Just Be Cool; Anti-Bacterial Hand Just Peachy; Anti-Bacterial Hand Lemon; Anti-Bacterial Hand Let it Snow; Anti-Bacterial Hand Liquid Sunshine; Anti-Bacterial Hand London Cherry Almond Shortbread; Anti-Bacterial Hand Love Bugs Pink Lemonade; Anti-Bacterial Hand Lump of Coal; Anti-Bacterial Hand Magic in the Air; Anti-Bacterial Hand Magnolias and Mimosas; Anti-Bacterial Hand Mango Dragonfruit; Anti-Bacterial Hand Marshmallow Mittens; Anti-Bacterial Hand Marshmallow Pumpkin Latte; Anti-Bacterial Hand Maui Mango Mai Tai; Anti-Bacterial Hand Meet Me in Paris; Anti-Bacterial Hand Melon Forever; Anti-Bacterial Hand Mermazing; Anti-Bacterial Hand Merry Berry Christmas; Anti-Bacterial Hand Merry Cookie; Anti-Bacterial Hand Mistletoe and Mimosas; Anti-Bacterial Hand More Love Less Hate Lemonade; Anti-Bacterial Hand Napa Valley Sunset; Anti-Bacterial Hand Naughty Nice I Tried; Anti-Bacterial Hand Nectarine Sun Tea; Anti-Bacterial Hand Need A Hand Starbright Citrus; Anti-Bacterial Hand Nerdy Emoji; Anti-Bacterial Hand New Phone Who Dis; Anti-Bacterial Hand New York Big Apple Sparkler; Anti-Bacterial Hand Ninjabread Man; Anti-Bacterial Hand Ocean For Men; Anti-Bacterial Hand Ocean Road; Anti-Bacterial Hand Oh Snap; Anti-Bacterial Hand On Christmas We Wear Pink; Anti-Bacterial Hand On Fleek; Anti-Bacterial Hand Ooh La La French Blooms; Anti-Bacterial Hand Orchard Bloom; Anti-Bacterial Hand Orchard Frost; Anti-Bacterial Hand Paris Amour; Anti-Bacterial Hand Paris Pink Champagne and Tulips; Anti-Bacterial Hand Peach Bellini; Anti-Bacterial Hand Perfect Autumn Day; Anti-Bacterial Hand Perfect Beach Day; Anti-Bacterial Hand Pineapple Punch; Anti-Bacterial Hand Pink Chiffon; Anti-Bacterial Hand Pink Prancer; Anti-Bacterial Hand Play Hard; Anti-Bacterial Hand Plum Cider Warmth; Anti-Bacterial Hand Poolside Punch; Anti-Bacterial Hand Pretty In Pink; Anti-Bacterial Hand Pumpkin Cupcake; Anti-Bacterial Hand Pumpkin Pecan Waffles; Anti-Bacterial Hand Pumpkin Pie; Anti-Bacterial Hand Purple Rain; Anti-Bacterial Hand Red Velvet Cheer; Anti-Bacterial Hand Ripe Raspberry Vine; Anti-Bacterial Hand Salted Pineapple Punch; Anti-Bacterial Hand Sanitizer; Anti-Bacterial Hand Sanitizer Eucalyptus Spearmint; Anti-Bacterial Hand Sanitizer Fresh Strawberries; Anti-Bacterial Hand Sanitizer Japanese Cherry Blossom; Anti-Bacterial Hand Sanitizer Sugar Lemon Fizz; Anti-Bacterial Hand Sanitizer Summer Escape; Anti-Bacterial Hand Sanitizer Sweet Pea; Anti-Bacterial Hand Santa Paws; Anti-Bacterial Hand Santa Tizer; Anti-Bacterial Hand Santa-Saurus; Anti-Bacterial Hand Savannah Mint Julep; Anti-Bacterial Hand Seaside Sunrise; Anti-Bacterial Hand Selfie; Anti-Bacterial Hand Shimmer and Champagne; Anti-Bacterial Hand Skater Girl; Anti-Bacterial Hand Slay; Anti-Bacterial Hand Snow Day Ice Blizzard; Anti-Bacterial Hand Snow Kissed Citrus; Anti-Bacterial Hand South Pacific Sunrise; Anti-Bacterial Hand Southern Lemon Chiffon; Anti-Bacterial Hand Sparkling Limoncello; Anti-Bacterial Hand Sparkling Mint Blossom; Anti-Bacterial Hand Sparkling Pear Riesling; Anti-Bacterial Hand Sparkling Seas; Anti-Bacterial Hand Sparklling Sweet Nectarine; Anti-Bacterial Hand Spray Sweet Pea; Anti-Bacterial Hand Spray Warm Vanilla Sugar; Anti-Bacterial Hand Squad; Anti-Bacterial Hand Stache Pomegranate; Anti-Bacterial Hand Stasher; Anti-Bacterial Hand Stay Woke Pink Petals; Anti-Bacterial Hand Strawberry Fields; Anti-Bacterial Hand Summer Sail; Anti-Bacterial Hand Suncrisp Apple Harvest; Anti-Bacterial Hand Sunlight and Apple Trees; Anti-Bacterial Hand Suntan; Anti-Bacterial Hand Surfside Spritzer; Anti-Bacterial Hand Sweet Cinnamon Pumpkin; Anti-Bacterial Hand Sweet Cinnamon Pumpkin Purrfect Potion; Anti-Bacterial Hand Sweet Pea; Anti-Bacterial Hand Sweet Peach Tea; Anti-Bacterial Hand Sweet Strawberries and Cream; Anti-Bacterial Hand TGIF Coconut Sugar; Anti-Bacterial Hand Tahitian Paradise; Anti-Bacterial Hand Thank You Berry Lemonade; Anti-Bacterial Hand The Thirst Is Real Pink Slushie; Anti-Bacterial Hand Tiki Mango Mai Tai; Anti-Bacterial Hand Tis the Season; Anti-Bacterial Hand Too Hip to Hop; Anti-Bacterial Hand Turquoise Waters; Anti-Bacterial Hand Twisted Peppermint; Anti-Bacterial Hand Twisted Web Creepy Orange; Anti-Bacterial Hand Vanilla Bean Noel; Anti-Bacterial Hand Vanilla Berry Sorbet; Anti-Bacterial Hand Vanilla Cupcake; Anti-Bacterial Hand Warm Vanilla Sugar; Anti-Bacterial Hand Watermelon Lemonade; Anti-Bacterial Hand Watermelon Picnic; Anti-Bacterial Hand Werk; Anti-Bacterial Hand Whipped Vanilla Cream; Anti-Bacterial Hand White Peach Chardonnay; Anti-Bacterial Hand Wicked Plum Vampire Blood; Anti-Bacterial Hand Winter; Anti-Bacterial Hand Winter Candy Apple; Anti-Bacterial Hand Winter White Woods; Anti-Bacterial Hand Winter Wonderland; Anti-Bacterial Hand Wrap Queen; Anti-Bacterial Hand XO Sprinkled Donut; Anti-Bacterial Hand XOXO Vanilla Coconut; Anti-Bacterial Hand YAS Pink Frosting; Anti-Bacterial Hand Yaas Citrus; Anti-Bacterial Hand Yay Summer; Anti-Bacterial Hand Youre A Gem; Anti-Bacterial Hand Youre All I See Orange Crush; Anti-aging Hand Sanitizer; Anti-bacterial Deep Cleansing Hand Soap; Anti-bacterial Hand; Anti-bacterial Hand Gel; Anti-bacterial Hand Sanitizer; Anti-bacterial Hand Sanitizer 2 Pack Blue Day Scented; Anti-bacterial Hand Sanitizer 2 Pack Blue Sunshiny Scented; Anti-bacterial Hand Sanitizer 2 Pack Splash Apple Scented; Anti-bacterial Hand Sanitizer 3 Pack 2; Anti-bacterial Hand Sanitizer 3 Pack Blue Day Scented; Anti-bacterial Waterless Hand Foam; Antiacterial Hand Sanitizer; Antibacterial; Antibacterial Hand - Witchs Brew and Scaredy Cat; Antibacterial Hand Arctic Blast; Antibacterial Hand Arctic blast; Antibacterial Hand Candy Cane; Antibacterial Hand Cranberry Spice; Antibacterial Hand Gift Set Icy Mint and Candy Cane; Antibacterial Hand Gingerbread; Antibacterial Hand Icy Mint; Antibacterial Hand Mistletoe and Mint; Antibacterial Hand Polar Mint; Antibacterial Hand Polar Mint and Arctic Blast; Antibacterial Hand Sanitizer; Antibacterial Hand Sanitizer Basil and Green Tea; Antibacterial Hand Sanitizer Citrus Coconut; Antibacterial Hand Sanitizer Gel; Antibacterial Hand Sanitizer Pamegranate Apple; Antibacterial Hand Sanitizer Passion Flower; Antibacterial Hand Sanitizer Pocket Sprayer; Antibacterial Hand Sanitizer Pomegranate and Acai; Antibacterial Hand Sanitizer Spray; Antibacterial Hand Sanitizer Sunblossom; Antibacterial Hand Sanitizer Sunflower and Citrus; Antibacterial Hand Sanitizer with Vitamine E; Antibacterial Hand Towelettes; Antibacterial Hand Wash; Antibacterial Sanitizer; Antibactierial Hand Sanitizer; Antimicrobial; Antimicrobial Alcohol Hand; Antimicrobial Alcohol Hand wipes; Antimicrobial Hand Sanitizer; Antimicrobial Hand Sanitizing Lotion Mango Scented; Antimicrobial Hand Wipe; Antiseptic; Antiseptic Hand Cleansing Gel; Antiseptic Hand Gel; Antiseptic Hand Gel with Aloe; Antiseptic Hand Sanitizer; Antiseptic Hand Sanitizing Wipe Enriched With Vitamin E And Aloe Vera; Aplicare Antiseptic Hand Rinse; Appeal Alcohol Foaming Hand Sanitizer; Apple Anti Bacterial Hand Sanitizer; Apple Antibacterial Hand Sanitizer with Aloe and Vitamin E; Apple Blossom Anti-bacterial Hand Sanitizer; Apple Blossom Scented Hand Sanitizer; AprilGuard Antiseptic Handrub; Aqua Sunset Hand Sanitizer; Arnica Hand Sanitizer Gentle Anti-bacterial Gel; Assured Aloe; Assured Aloe Scented Instant Hand Sanitizer; Assured Hand Sanitizer With Moisturizers; Assured Hand Sanitizer with Aloe Vera; Assured Hand Sanitizer with Vitamin E; Assured Instant; Assured Instant Hand Sanitizer; Assured Instant Hand Sanitizer with Moisturizers Vitamin E and Aloe; Athleticare No-Rinse Hand Sanitizing AC 575; Aurafresh Instant Hand Sanitizer Aloe Vera; Aurafresh Instant Hand Sanitizer Vitamin E; Aurafresh Instant Hand Sanitizer With Aloe and Vitamin E Berries; Aurafresh Instant Hand Sanitizer With Aloe and Vitamin E Fresh Citrus; Aurafresh Instant Hand Sanitizer With Aloe and Vitamin E Lavender; Aurafresh Instant Hand Sanitizer With Aloe and Vitamin E Original; Aurafresh Instant Hand Sanitizer With Moisturizeers Vitamin E and Aloe; Aurafresh Instant Hand Sanitizer With Moisturizers Aloe Vera and Moisturizers; Aurora Antibacterial Sanitizer Summer Cotton Breeze; Aurora Antibacterial Sanitizer Sweet Lychee Berry; Auto 157; Avagard Chg; Avagard D; Avant EX; Avant Eco-Premium Instant Hand Sanitizer; Avant Foaming Hand Sanitizer; Avant Original - Fragrance Free; Avant Original Instant Hand Sanitizer; Avon Clearskin 2 Overnight Acne Treatment; Avon Clearskin Acne Defense Stick; Avon Skin So Soft Antibacterial Moisturizing Hand Gel; Avon Skin So Soft Antibacterial Moisturizing Hand Gel With Alcohol 60%; Avon Skin-SO-soft Antibacterial Moisturizing Towelettes; Awaken by Quality Choice Hand Sanitizer Citrus Coconut; Awaken by Quality Choice Hand Sanitizer Vanilla Crm and Apple Blossom; Azuro; B4 Hand Sanitizer; B4 Hand Sanitizer 500 Single-Use Packs; BACTEX Antiseptic Hand Sanitizer; BD E-Z Care; BD Persist; BOARDWALK Hand Sanitizer; Bacti-Free tm Hand Sanitizer; Batman Berry Scented Antiseptic Hand Cleansing; BeCause Antibacterial Hand Jafra; Bea-Silky; Bearicaid Antiseptic Skin Sanitizing Wipes; Beautos Antibacterial Hand Sanitizer Lemon; Bella Maison Coconut Pineapple Antibacterial Hand Sanitizer; Bella Maison Tropical Vanilla Antibacterial Hand Sanitizer; Ben E.Keith Hand Cleaner; Berkley Jensen Instant Sanitizer; Berry Hand Sanitizer with vitamin E and aloe; Berry Sorbet Anti-bacterial Hand Sanitizer; Bio-septic; Blackberry Vanilla Hand Sanitizer Bodycology; BlancTis Essence tooth whitening gel; BlancTis Forte II tooth whitening; Blockout Foot Wipes; Blue Cross Laboratories Hand Rx; Blue Paradise Anti-bacterial Hand Sanitizer; Blue Rasberry Hand Sanitizer; Blueberry cream Anti-Bacterial Hand Sanitizer; Body; Body Blends Apple Attraction Anti-bacterial Hand Sanitizer; Body Blends Citrus Awakening Anti-bacterial Hand Sanitizer; Body Blends Coconut Lime Escape Anti-bacterial Hand Sanitizer; Body Blends Vanilla Sugar Anti-bacterial Hand Sanitizer; Body Luxuries Blueberry Scented Waterless Anti Bacterial Hand gel; Body Luxuries Cherry Blossom Waterless Anti-bacterial Hand Sanitizer; Body Luxuries Coconut Vanilla Waterless Anti-bacterial Hand Sanitizer; Body Luxuries Dahlia Blossom Scented Waterless Anti Bacterial Hand gel; Body Luxuries English Pear Antibacterial Hand Sanitizer; Body Luxuries English Pear Scented Waterless Anti Bacterial Hand gel; Body Luxuries French Lavender Antibacterial Hand Sanitizer; Body Luxuries French Lavender Scented Waterless Anti Bacterial Hand gel; Body Luxuries French Lavender Waterless Anti-bacterial Hand Sanitizer; Body Luxuries Fresh Cotton Hand Sanitizer; Body Luxuries Lotus Flower Scented Waterless Anti Bacterial Hand gel; Body Luxuries Moroccan Rose Antibacterial Hand Sanitizer; Body Luxuries Pineapple Mango Waterless Anti-bacterial Hand Sanitizer; Body Luxuries Strawberry Scented Waterless Anti Bacterial Hand gel; Body Luxuries Sweet Lavender Hand Sanitizer; Body Luxuries Tihitian Vanilla Antibacterial Hand Sanitizer; Body Luxuries Waterless Hand Sanitizer; Body Raves Antibacterial Hand Sanitizer - Lavender Vanilla; Body Raves Antibacterial Hand Sanitizer - Wild Strawberry; Bodycology Brown Sugar Vanilla; Bodycology Brown Sugar Vanilla Hand Sanitizer; Bodycology Cherry Blossom Hand Sanitizer; Bodycology Cucumber Melon Hand Sanitizer; Bodycology Hand Sanitizer Gift Set; Bodycology Moisturizing Hand Sanitizer Brown Sugar Vanilla; Bodycology Moisturizing Hand Sanitizer Cherry Blossom; Bodycology Moisturizing Hand Sanitizer Cucumber Melon; Bodycology Moisturizing Hand Sanitizer Midnight Garden; Bodycology Moisturizing Hand Sanitizer Sweet Petals; Bodycology Moisturizing Hand Sanitzer White Gardenia; Bodycology Sweet Petals; Bodycology Sweet Petals Hand Sanitizer; Bodycology Vanilla Cupcake; Boolicious Antibacterial Hand; Boolicious Antibacterial Hand Sanitizer; Bortons Ethyl Rubbing Alcohol; Bortons Menticol; Branders Antiseptic Hand Sanitizer; Brompton and Langley Coconut Water and Habiscus Hand Sanitizer Coconut Water and Habiscus; Brompton and Langley Ginger Lily and Lime Moisturizing Hand Sanitizer ginger lily and lime; Brompton and Langley Green Apple Hand Sanitizer Green Apple; Brompton and Langley Lavender Vanilla Hand Sanitizer Lavender Vanilla; Brompton and Langley Moisturizing Candy and Apple Swirl scented Hand Sanitizer Candy and Apple Swirl; Brompton and Langley Moisturizing Hand Sanitizer Market Strawberry; Brompton and Langley Vanilla Marshmallow Hand Sanitizer Vanilla Marshmallow; Brompton and Langley Zesty Lemon Hand Sanitizer Zesty Lemon; Bubble Gum; Business Elite Amenity; CAREONE Antibacterial Sanitizer Fresh Water; CAREONE Antibacterial Sanitizer Limoncello; CAREONE Instant Hand Sanitizer with Aloe and Vitamin E; CELLEANSER Secret Mist; CTCA Foaming Hand Sanitizer; CVS Decolorized Iodine; CVS Hand Sanitizer; CVS Health Prebiotic Sanitizer; CVS Iodine; CVS Pharmacy FOAM HAND SANITIZER WITH ALOE; CVS Pharmacy Instant Hand Sanitizer With Aloe And Vitamin E; CVS Pharmacy Instant Hand Sanitizer With Moisturizers And Vitamin E; CVS pharmacy Instant Hand Sanitizing Wipes; Candy Apple; Candy Apple Scented Anti-bacterial Hand Gel; Candy Cane; Candy Coated Apple anti-bacterial SCENTED HAND SANITIZER; Cardinal Health Hand Sanitizer with Aloe; Cardinal Health Sanitizer; Care; Care Bears Cotton Candy Antiseptic Hand Cleansing; Care One Antibacterial Peppermint Swirl; Care One Antibacterial Rum Raisin; Care One Antibacterial Snow Kissed Pear; Care One Antibacterial Tangerine Spice; Care One Creamy Coconut; Care One Instant Sanitizer; Care One Lemon Verbena; Care One Peppermint Swirl; Care One Pine; Care One Pumpkin Pie; Care One Sun Kissed Pear; Care One Vanilla Apple Blossom; Care One Vanilla Bean; CareTouch; Careone; Careone Aloe and Vitamin E Hand Sanitizer; Careone Antibacterial Hand Sanitizer Festival Of Lights; Careone Antibacterial Hand Sanitizer Mistletoe Kisses; Careone Antibacterial Hand Sanitizer Pumpkin Roll; Careone Antibacterial Hand Sanitizer Seasons Greetings; Careone Antibacterial Hand Sanitizer Winter Sky; Careone Antibacterial Sanitizer Gingerbread House; Careone Antibacterial Sanitizer Pecan Pumpkin Pie; Careone Antibacterial Sanitizer Peppermint Candy; Careone Apple Berry; Careone Country Apple; Careone Instant Hand Sanitizer Lemon; Careone Instant Hand Sanitizer With Aloe and Vitamin E; Careone Instant Hand Sanitizer With Moisturizers and Vitamin E; Careone Lemon; Careone Lemon Meringue Hand Sanitizer; Careone Lime Basil; Careone Tahitian Coconut; Careone Vanilla Buttercream Hand Sanitizer; Careone Vitamin E Hand Sanitizer; Celox Antiseptic; Celox Ultra; Charlie girl Blueberry Antibacterial Hand Sanitizer; Charlie girl Grape Antibacterial Hand Sanitizer; Charlie girl Strawberry Antibacterial Hand Sanitizer; Cheeky Fresh; ChemStation E3 Hand Sanitizer; Chemco Anisha K. Instant Skin Sanitizer; Chemisphere Hand Sanitizer; Cheracol Cough Syrup; Cherry Blossom Scented Hand Sanitizer; Cherry Blossom Waterless Anti-Antibateria Hand Sanitizer; Cida Wipes; Cida-rinse Antiseptic Towelettes; Cida-rinse Gel; Cida-rinse Liq 70%; Cinnamon Sugar; Citrus Hand Sanitizer; Citrus Hand Sanitizer with vitamin E and aloe; Citrus Sparkle; Citrus Sunshine; Claires; Claires Fancy Nancy Antibacterial Glamourous Grape; Claires Fancy Nancy Antibacterial Strawberry Parfait; Clara Instant Waterless Hand Sanitizer; Claree; Clario Foaming Alcohol Instant Hand Sanitizer; Clario Instant Hand Sanitizer; Clean All; Clean Choice Alcohol Sanitizer; Clean Force; Clean N Fresh Instant Hand Sanitizer; Clean Xpress Alcohol Gel Instant Skin Sanitizer; Clean hand sanitizer; Clear Defense; Clear Defense Citrus Sage; Clear Defense Hand Sanitizing Wipes; Clearly Better; Clinical Works Cucumber Melon Waterless Hand Sanitizer; Clinical Works Lavender Blossom Waterless Hand Sanitizer; Clinical Works Ocean Breeze Waterless Hand Sanitizer; Clinical Works Pink Grapefruit Waterless Hand Sanitizer; Clinishield Instant Hand Sanitizer; Clorox Antimicrobial Hand Sanitizer; Clorox Care Concepts Hand Sanitizer; Clorox Hand Sanitizer; Coconut Anti Bacterial Hand Sanitizer; Coconut Antibacterial Hand Sanitizer; Coconut Lime; Coconut Lime Anti-Bacterial Hand Sanitizer; Coconut Lime Antibacterial Hand Sanitizer; Coconut Lime Antibacterial Sanitizer; Coconut Tuberose; Coconut Vanilla Hand Sanitizer; Coconut Water Scented Hand Sanitizer; ColemanHand Sanitizer Hand Sanitizer; Command AntiBac Instant Hand Sanitizer; Compact Hand Sanitizer; Companion Hand Sanitizer; Compound Benzoin Tincture USP; Cool Clementine anti-bacterial SCENTED HAND SANITIZER; Cool Mint Antiseptic Mouthwash; Cotton Blossom Waterless Anti-Antibateria Hand Sanitizer; Cotton Candy; Cotton Candy Hand Sanitizer; Cotton Candy Scented Anti-bacterial Hand Gel; Cotton candy anti-bacterial SCENTED HAND SANITIZER; Cranberry Cake; Cranberry Cherry Scented Hand Sanitizer; Cranberry Garland; Cranberry Hand Sanitizer; Cranberry Vanilla Scented Antibacterial Hand Sanitizer; Crazy Coconut; Creamsicle Hand Sanitizer; Creations Garden White Tea Quince Hand Sanitizer; Credit Card Shape Hand Sanitizer; Crisp Apple Hand Sani; Crisp Evergreen; Cucumber Melon Antibacterial Sanitizer; Cucumber Melon Hand Sanitizer; Cucumber Melon Scented Hand Sanitizer; Cupcake; Cupcake Scented Anti-bacterial Hand Gel; Cvs Pharmacy Advanced Tangerine; Cvs Pharmacy Aloe; Cvs Pharmacy Anti-aging Hand Sanitizer; Cvs Pharmacy Hand Sanitizer Aloe; Cvs Pharmacy Instant Hand Sanitizer Fresh Scent; Cvs Pharmacy Instant Hand Sanitizer With Moisturizers and Vitamin E; Cvs Pharmacy With Vitamin E; DDM Decolorized Iodine; DDM Iodine Tincture Mild; DEFENDER Foaming Hand Sanitizer; DIGISAN Healthcare Hand Sanitizer; Daisy Blossom Antibacterial Hand Sanitizer; Dalmacol; DawnMist Alcohol Gel Hand Sanitizer; DawnMist Alcohol Hand Sanitizer; Daylogic Advanced Hand Sanitizer Refill; De La Cruz Decolorized Iodine; De La Cruz Tincture of Iodine; Deb InstantFOAM Alcohol Hand Sanitizer; Deb InstantFOAM Complete; Deb InstantFoam Alcohol Sanitizer; Deb Med InstantFOAM Hand Sanitizer; Deb Med InstantFOAM OptiDose Hand Sanitizer; Decolorized Iodine; Decon Hand Instant Hand Sanitizer; Dehydrated Alcohol; Dehydrated Alcohol Injection; Dehydrated Alcohol Injection USP; Derma Stat; Derma-Glove; DermaCen Instant Hand Sanitizer; DermaCen Instant Hand Sanitizer with Aloe; DermaGel HAND SANITIZING; Desmanol Pure; Dial Antibacterial Hand Sanitizer; Dial Professional Antibacterial Hand Sanitizer; DigiSan; DigiSan Hand Sanitizer; Dignity Health Hand Sanitizer Alcare Plus; Dilusol Liq 38.7%; Disney FAIRIES Sweet Berry Scented Antiseptic Hand Cleansing; Disney FROZEN BERRY SCENTED ANTISEPTIC HAND CLEANSING; Disney MINNIE Cotton Candy Scented Antiseptic Hand CLEANSING; Disney PIXAR Cars BERRY SCENTED Antiseptic Hand CLEANSING; Disney PRINCESS Raspberry Scented Antiseptic Hand CLEANSING; Diversey Antiseptic Hand Gel 70%; Dologesic; Dots Apple Cinnamon Anti-Bacterial Hand Sanitizer; Dots Asian Spice Anti-Bacterial Hand Sanitizer; Dr Tichenors First Aid Antispetic; Dr. Rothmans Dermashield; Dr.Phi Advanced Hand sanitizer; Dr.Phi Instant Hand Sanitizer; Dreumex Omnicare Hand Sanitizer; Dynarex Green; ECOLAB Hand Sanitizer; EO Hand Sanitizer Wipes Lavender; ESCA Hand Sanitizing Wipes; EXTENDED CARE Foaming Hand Sanitizer; Easy to break-off cleaning and disinfecting swabstick JJB-I; Eclair Naturals (french Lavender) Hand Sanitizer; Eclair Naturals (vanilla Peppermint) Hand Sanitizer; Ecolab; Ecolab Facilipro; Egyptian Cotton Antibacterial Hand Sanitizer; Elgin Instant Hand Sanitizer; Elyptol Antimicrobial Hand Gel; Elyptol Antimicrobial Rub; Elyptol Hand Sanitizer Wipe; Elyptol Light Scent Antimicrobial; Elyptol Light Scent- Antimicrobial Hand Gel; EnMotion Foam Hand Sanitizer With Moisturizers; Enbac skin antiseptic/sanitizer contains aloe vera; Enchanted Forest Hand Sanitizer Bodycology; Enchanted Moments Berries and Cream Hand Sanitizer; Enchanted Moments Candy Apple Hand Sanitizer; Enchanted Moments Mistletoe Kisses Hand Sanitizer; Enchanted Moments Vanilla Snow Hand Sanitizer; Endure 300 Cida Rinse Gel Antimicrobial Hand Rinse; Endure 300 Hand Sanitizer; Endure 320 Advanced Care Waterless Antimicrobial Hand Rinse with Moisturizers; Endure 450 Surgical and Healthcare Personnel Hand Antiseptic with Moisturizers; Envirokleen Instant Hand Sanitizer; Eo Hand Sanitizer Lavender; Eo Hand Sanitizer Lemon; Eo Hand Sanitizer Peppermint; Eo Hand Sanitizer Sweet Orange; Eo Hand Sanitizer Unscented; Epi-Clenz Hand Sanitizer; Epi-Clenz Instant Hand Antiseptic; Epi-Clenz Instant Hand Antiseptic Scented; Epi-Clenz Plus Instant Hand Antiseptic; Epi-Clenz Plus Instant Hand Sanitizer; Epi-Clenz Pure Instant Hand Antiseptic; Epoch; Equaline; Equate Anti Bacterial Hand Sanitizer; Equate Anti Bacterial Hand Sanitizer Beach; Equate Anti Bacterial Hand Sanitizer Black Cherry Grape; Equate Anti Bacterial Hand Sanitizer Coconut; Equate Anti Bacterial Hand Sanitizer Lemon; Equate Anti Bacterial Hand Sanitizer Strawberry; Equate Hand Sanitizer; Erysol; Essence Of Beauty Citrus Coconuti; Essence Of Beauty Japanese Garden; Essence Of Beauty Japanese Garden Antibacterial; Essence Of Beauty Lilies and Freesia; Essence Of Beauty Snowy Apple; Essence Of Beauty Sugar Frosted Mint; Essence Of Beauty Vanilla Wishes; Essence Of Beauty Wind Kissed; Ethyl Alcohol; Ethyl Alcohol 70 percent; Ethyl Rubbing Alcohol; Ethyl alcohol; Ethyl alcohol 70 percent ReadyInCase; Evergreen Snowman; Everyone Hand Sanitizer Lavender Aloe; Exotic Cherry Blossom Hand Sanitizer; Exotic Cherry Blossom Kit Bodycology; Exotic Cherry Blossom Kit bodycology; FAIR and SQUARE ANTIBACTERIAL HAND SANITIZER with ALOE VERA; FIRST AID Contains 303 PIECES; FIRST AID Plus More ALCOHOL Prep Pad; Facilipro; Facilipro Waterless Hand Rinse; Facility Maintenance Instant Hand Sanitizer HS-67; Fair and Square Antibacterial Hand Sanitizer with Vitamine E; Faith Family Ducks Antiseptic Hand Cleansing; Family Dollar Instant Hand Sanitizer with Moisturizers and Vitamin E; Fast; Fengliaoxing Fengshi Dieda Yaojiu; Fikes Instant Hand Sanitizer; Finafta; First Aid Kit; Five Photo Brand First Aid Antiseptic; Floral Frenzy; Foam Aid; Foam Hand Sanitizer; Foam San Hand Sanitizer; FoamFresh Alco-Foam Hand Sanitizer; Foamahol; Foaming Hand Sanitizer; Foaming Instant Hand Sanitizer with Aloe; Foaming Sanitizing Hand; Forever Hand Sanitizer Hand Sanitizer; Foxy Citrus; Frais Hand Sanitizer; Free Hand; Freeman Packaging Hand Sanitizer; Freeman Packing Alcohol Wipe; Fresh Breeze; Fresh Cucumber Melon Bodycology; Fresh Decor Basil Green Tea; Fresh Decor Citrus Pomegranate; Fresh Decor Coconut Cream; Fresh Decor Lemon Verbena; Fresh Fruit Scented Hand Sanitizer; Fresh Hand Sanitizer with vitamin E and aloe; Fresh Lavender Waterless Anti-Antibateria Hand Sanitizer; Fresh Med Solution; Fresh Splash Scented Hand Sanitizer; Fresh Up Antiseptic Hand; Freshorize hand sanitizer; Frisky Cinnamon; Friuts and Flowers Clean Cotton Waterless Hand Sanitizer; Friuts and Flowers Grapefruit Waterless Hand Sanitizer; Frosted Berries and Cream Sanitizer Pen; Frosted Berry Hand Sanitizer; Frosted Berry Hand Sanitizer None; Frosted Sugar Cookie; Frosted Sugar Plum Hand Sanitizer Bodycology; Frosted cranberry anti-bacterial SCENTED HAND SANITIZER; Fruit Floral Scented Hand Sanitizer; Funky Monkey Hawaiian HAND SANITIZER; GBG AloeGel; GBG AloeGel Instant Hand Sanitizer; GENUINE FIRST AID Emergency Preparedness Contains 167 PIECES HARDCASE; GFA First Aid Kit Essentials - 33 Pieces; GNP Ethyl Rubbing Alcohol 70 Percent; GNP Idoinde Tincture 2% Mild; GOOD NEIGHBOR PHARMACY FIRST AID Contains 202 PIECES; Game Day MSC Mainstreet Collection Hand Sanitizer; Gbg; Gbgf; Gel Instant Hand Sanitizer; Gelrite; Genuine Hand Sanitizer; Georgia-Pacific Alcohol Hand Sanitizer; GeriGentle Hand Wipes; Germ Blaster Hand Sanitizer; Germ Bullet; Germ Fighter; Germ Free Zone Sanitizing Wipe; Germ SOS Sanitizing Wipes; Germ Safe; Germ-X; Germ-X Everywhere; Germ-X Hand Sanitizer; Germstar Premium Hand Sanitizer; Ginger Lime Hand Sanitizer; Ginger Lime Waterless Hand Wash; Gingerbread; Gingerbread Jubilee; Gingerhead Girl anti-bacterial SCENTED HAND SANITIZER; Glazed Pear; Glistening Pear Hand Sainitizer; Glitter Ritz Golden Vanilla Embers; Glitter Ritz Iced Berry; Global Clean Instant Hand Sanitizer; Goldlove Hand Sanitizer None; Good Neighbor Pharmacy Emergency Preparedness and First Aid Contains 167 Pieces; Good to Go Hand Sanitizer; Goongsecret Hands Clean; Green Antiseptic Mwh & Gargle; Green Apple Hand Sanitizer; Green Earth Alcohol Gel Sanitizer; Green Tea Antibacterial Hand Sanitizer; Gum Drop Hand Sanitizer; HAND SANITIZER with ALOE VERA; HDX Hand Sanitizer; HEALTHCARE Instant Hand Sanitizer Strawberry Scent; HEALTHCARE Instant Hand Sanitizer Vanilla Scent; HER LH2473 Vanilla Scented Hand Sanitizer Kit; HER LH2475 Vanilla Scented Hand Sanitizer Kit; HER LH2476 Citrus Scented Hand Sanitizer Kit; HER LH2484 Strawberry Scented Hand Sanitizer Kit; HER LT279 Vanilla Limited Too Hand Sanitizer Kit; HER LT288 Citrus Limited Too Hand Sanitizer Kit; HER LT289 Vanilla Limited Too Hand Sanitizer Kit; HER LT297 Strawberry Limited Too Sanitizer Kit; HUGO Naturals FRENCH LAVENDER HAND SANITIZER; HUGO Naturals VANILLA PEPPERMINT HAND SANITIZER; Han-I-Foam; Han-I-Size; Hand; Hand Citrus Sanitizer; Hand Coconut Lime Sanitizer; Hand E San; Hand Essentials Instant Hand Antiseptic; Hand Gel Prolim Instant Hand Sanitizer; Hand Guard Foaming Instant Hand Sanitizer; Hand Recovery; Hand San; Hand Sanitiser; Hand Sanitizer; Hand Sanitizer  Liq.  62%; Hand Sanitizer 3pk; Hand Sanitizer Anticeptic; Hand Sanitizer BlowPop Cherry; Hand Sanitizer Bodycology; Hand Sanitizer Bubble; Hand Sanitizer CDS Office Products; Hand Sanitizer Chocolate; Hand Sanitizer Circle K; Hand Sanitizer Citrus Coconut With Moisture Beads; Hand Sanitizer Coastal Surf; Hand Sanitizer Cranberry Tart; Hand Sanitizer Cucumber Aloe; Hand Sanitizer Free and Clear; Hand Sanitizer Gel 62%; Hand Sanitizer Gift Set 3-pack; Hand Sanitizer Graepfruit Grove; Hand Sanitizer Grape; Hand Sanitizer Grapefruit Grove; Hand Sanitizer Hand Rx; Hand Sanitizer Juicy Blueberry; Hand Sanitizer Lavender; Hand Sanitizer Lavender Field; Hand Sanitizer Lavender With Aloe; Hand Sanitizer Lavender with aloe; Hand Sanitizer Lemon; Hand Sanitizer Lemon Scent Hand Rx; Hand Sanitizer Lemongrass with aloe; Hand Sanitizer Lil Drug Store Products, Inc.; Hand Sanitizer Lime; Hand Sanitizer Liq Top 60%; Hand Sanitizer Moisturizing with Vitamin E and Glycerin; Hand Sanitizer Mojito Mint; Hand Sanitizer Orange; Hand Sanitizer Orange Blossom; Hand Sanitizer Orange Tangerine; Hand Sanitizer Orange With Aloe; Hand Sanitizer Orange with aloe; Hand Sanitizer Passion Flower With Moisture Beads; Hand Sanitizer Passionfruit Pomegranate; Hand Sanitizer Pink Lemonade; Hand Sanitizer Pink Strawberry Lollipop; Hand Sanitizer Pomegranate Apple With Moisture Beads; Hand Sanitizer Raspberry; Hand Sanitizer Razz; Hand Sanitizer Sour Apple; Hand Sanitizer Spicy Peppermint; Hand Sanitizer Spraying; Hand Sanitizer Strawberry; Hand Sanitizer Sugar Coated Plum; Hand Sanitizer Sugared Berry; Hand Sanitizer Sun Blossom With Moisture Beads; Hand Sanitizer Sweet Sugar Cookie; Hand Sanitizer Ultrathon; Hand Sanitizer Vanilla Scent; Hand Sanitizer Watermellon; Hand Sanitizer Winter Jelly Bean; Hand Sanitizer Wipes; Hand Sanitizer With Moisturizers and Vitamin E; Hand Sanitizer With Ve; Hand Sanitizer bottle with carabiner; Hand Sanitizer w/Carabiner; Hand Sanitizer with Aloe; Hand Sanitizer with Aloe Vera; Hand Sanitizer with Moisturizers; Hand Sanitizer with Moisturizers Vitamin E and Aloe; Hand Sanitizer with Moisturizers and Vitamin E; Hand Sanitizing A Plus Teacher Unscented; Hand Sanitizing Blueberry; Hand Sanitizing Green Apple; Hand Sanitizing Lavender; Hand Sanitizing Mandarin; Hand Sanitizing Special Teacher Green Apple; Hand Sanitizing Strawberry; Hand Sanitizing Teachers Rule Mandarin; Hand Sanitizing Unscented; Hand Sanitizing Wipes; Hand and Nature Sanitizer Acacia; Hand and Nature Sanitizer Almond; Hand and Nature Sanitizer Aloe; Hand and Nature Sanitizer Apple; Hand and Nature Sanitizer Apple Mango; Hand and Nature Sanitizer Avocado; Hand and Nature Sanitizer Calendula; Hand and Nature Sanitizer Camellia; Hand and Nature Sanitizer Cherry Blossom; Hand and Nature Sanitizer Grape; Hand and Nature Sanitizer Grapefruit; Hand and Nature Sanitizer Green Tea; Hand and Nature Sanitizer Honey; Hand and Nature Sanitizer Jasmine; Hand and Nature Sanitizer Kiwi; Hand and Nature Sanitizer Lavender; Hand and Nature Sanitizer Lemon; Hand and Nature Sanitizer Orance; Hand and Nature Sanitizer Peach; Hand and Nature Sanitizer Peach 250ml; Hand and Nature Sanitizer Peony; Hand and Nature Sanitizer Peppermint; Hand and Nature Sanitizer Raspberry; Hand and Nature Sanitizer Rose; Hand and Nature Sanitizer Rosemary; Hand and Nature Sanitizer Tomato; Hand and Nature Sanitizer White Musk; Hand sanitizer; Hand sanitizer lemongrass with aloe; Hand-Aid; Hand-E XL; Handex Instant Hand Sanitizer; Handful Sanitizer; Handi Sani; Handi-Sani; Handy Solutions Instant Hand Sanitizer With Aloe And Vitamin E; Hanitizer; Hannaford Hand Sanitizer; Hansan Foam; Hansan Spray; Harmon Face Values Cherry Blossom Scent Hand Sanitizer; Harmon Face Values Cucumber Melon Scent Hand Sanitizer; Harmon Face Values Fresh Waters Scent Hand Sanitizer; Harmon Face Values Hand Sanitizer Spray; Harmon Face Values Pomegranate Scent Hand Sanitizer; Harmon Face Values Warm Vanilla Sugar Scent Hand Sanitizer; Harris Teeter Hand Sanitizer With Vitamin E; Harris Teeter Hand Sanitizer With Vitamin E and Aloe; Harris Teeter Iodine Tincture Mild; Hawaiian Passion Hand Sanitizer; Healing Water Amber Flower Anti-Bacterial Hand Sanitizer; Healing Waters Aloe Cucumber Hand Sanitizer; Healing Waters Cherry Blossom Scented Waterless Hand Sanitizer; Healing Waters Clean Cotton Scented Anti-Bacterial Hand Sanitizer; Healing Waters Cotton Blossom Hand Sanitizer; Healing Waters Cucumber Melon Scented Anti-Bacterial Hand Sanitizer; Healing Waters Cucumber Melon Scented Waterless Hand Sanitizer; Healing Waters Island Nectar Scented Anti-Bacterial Hand Sanitizer; Healing Waters Lemon Verbena Hand Sanitizer; Healing Waters Peach Nectarine Hand Sanitizer; Healing Waters Sweet Pea Lily Hand Sanitizer; Healing Waters Sweet Pea Scented Anti-Bacterial Hand Sanitizer; Healing Waters Vanilla Orchid Anti-Bacterial Hand Sanitizer; Healing Waters Violet Rose Hand Sanitizer; Healing Waters White Tea Pear Hand Sanitizer; Health And Beyond Instant Hand Sanitizer; Health And Beyond Instant Hand Sanitizer Twin Pack Twin Pack; Health Care Instant Hand Sanitizer Ice Clear; Health Mart Iodides; Health Mart Iodine Tincture Mild; Health Smart Instant Hand Sanitizer with aloe vera and vitamin e; Health Smart Instant Hand Sanitizer with aloe vera and vitamin e cucumber melon; Health Smart Instant Hand Sanitizer with aloe vera and vitamin e lavender; Health Smart Instant Hand Sanitizer with aloe vera and vitamin e peach; Health Smart Instant Hand Sanitizer with aloe vera and vitamin e sweet pea; Health and Beyond Antiseptic Hand Sanitizer; Health and Beyond Green; Healthcare Personnel Handwash; Healthy Hands Aloe Instant Hand Antibacterial; Healthy Hands Instant Antiseptic Hand Cleanser; Healthy Hands Instant Antiseptic Hand Cleanser With Moisturizers; Heb Jasmine Tea and Basil; Heisclean for Man; Heisclean for Woman; Hello Kitty Hand Sanitizer; Hello Kitty by Sanrio Hand Sanitizer; Hes Clean; Hes Clean Adam; Hes Clean Eve; Hes Clean Plus; Hes Clean for Woman; Hexifoam-skin Disinfectant Aer 1%; HiGeen Antiseptic Hand Sanitizer Gel FRESH LEMON FRAGRANCE; HiGeen Antiseptic Hand Sanitizer Gel FRESH MARACUJA FRAGRANCE; HiGeen Antiseptic Hand Sanitizer Gel Fragrance Free; HiGeen Antiseptic Hand Sanitizer Gel LEMON VERBENA FRAGRANCE; HiGeen Antiseptic Hand Sanitizer Gel With Vitamin Beads Blue Flowers With Silicon Holder; HiGeen Antiseptic Hand Sanitizer Gel With Vitamin Beads Damask Rose With Silicon Holder; HiGeen Antiseptic Hand Sanitizer Gel With Vitamin Beads Fragrance Free With Silicon Holder; HiGeen Antiseptic Hand Sanitizer Gel With Vitamin Beads Green Tea and Cucumber With Silicon Holder; HiGeen Antiseptic Hand Sanitizer Gel With Vitamin Beads Jasmine With Silicon Holder; HiGeen Antiseptic Hand Sanitizer Gel With Vitamin Beads Kiwi With Silicon Holder; HiGeen Antiseptic Hand Sanitizer Gel With Vitamin Beads Lemon With Silicon Holder; HiGeen Antiseptic Hand Sanitizer Gel With Vitamin Beads Marine With Silicon Holder; HiGeen Antiseptic Hand Sanitizer Gel With Vitamin Beads Oud With Silicon Holder; HiGeen Antiseptic Hand Sanitizer Gel With Vitamin Beads Papaya with Silicon Holder; HiGeen Antiseptic Hand Sanitizer Gel With Vitamin Beads Passion Flower With Silicon Holder; HiGeen Antiseptic Hand Sanitizer Gel With Vitamin Beads Red Fruits With Silicon Holder; HiGeen Antiseptic Hand Sanitizer Gel With Vitamin Beads Together in love With Silicon Holder; HiGeen Antiseptic Hand Sanitizer Gel With Vitamin Beads Wild Berry With Silicon Holder; HiGeen Antiseptic Hand Sanitizer Gel with Vitamin Beads Blue Flowers; HiGeen Antiseptic Hand Sanitizer Gel with Vitamin Beads Damask Rose; HiGeen Antiseptic Hand Sanitizer Gel with Vitamin Beads For Kids and Adults BiBo; HiGeen Antiseptic Hand Sanitizer Gel with Vitamin Beads For Kids and Adults Bitty and Mitty; HiGeen Antiseptic Hand Sanitizer Gel with Vitamin Beads For Kids and Adults Dooh; HiGeen Antiseptic Hand Sanitizer Gel with Vitamin Beads For Kids and Adults FiLo; HiGeen Antiseptic Hand Sanitizer Gel with Vitamin Beads For Kids and Adults Gito; HiGeen Antiseptic Hand Sanitizer Gel with Vitamin Beads For Kids and Adults Kitty; HiGeen Antiseptic Hand Sanitizer Gel with Vitamin Beads For Kids and Adults MiDo; HiGeen Antiseptic Hand Sanitizer Gel with Vitamin Beads For Kids and Adults NiNo; HiGeen Antiseptic Hand Sanitizer Gel with Vitamin Beads Fragrance Free; HiGeen Antiseptic Hand Sanitizer Gel with Vitamin Beads Gold; HiGeen Antiseptic Hand Sanitizer Gel with Vitamin Beads Gold With Silicon Holder; HiGeen Antiseptic Hand Sanitizer Gel with Vitamin Beads Green Tea and Cucumber; HiGeen Antiseptic Hand Sanitizer Gel with Vitamin Beads Jasmine; HiGeen Antiseptic Hand Sanitizer Gel with Vitamin Beads Kiwi; HiGeen Antiseptic Hand Sanitizer Gel with Vitamin Beads Lemon; HiGeen Antiseptic Hand Sanitizer Gel with Vitamin Beads Marine; HiGeen Antiseptic Hand Sanitizer Gel with Vitamin Beads Oud; HiGeen Antiseptic Hand Sanitizer Gel with Vitamin Beads Papaya; HiGeen Antiseptic Hand Sanitizer Gel with Vitamin Beads Passion Flower; HiGeen Antiseptic Hand Sanitizer Gel with Vitamin Beads Red Fruits; HiGeen Antiseptic Hand Sanitizer Gel with Vitamin Beads Together in love; HiGeen Antiseptic Hand Sanitizer Gel with Vitamin Beads Wild Berry; Hibiscus Breeze; Hibiscus Coconut Hand Sanitizer; High Five; Hillyard Foaming Instant Hand Sanitizer; Hillyard Instant Hand Sanitizer; Holiday Cookie Antibacterial; Holiday Wonders Frosted Marshmallow Antibacterial Hand Sanitizer; Holiday Wonders Sugared Plums Antibacterial Hand Sanitizer; Holiday Wonders Vanilla Peppermint Antibacterial Hand Sanitizer; Holiday Wonders Winter Berries Antibacterial Hand Sanitizer; Honeysuckle Ginger Hand Sanitizer; Hootin Pomegranate; Hootin Pomegranate HAND SANITIZER; Humco Iodides Tincture; Humco Strong Iodine Tincture; Humphreys Alcoholado Maravilla; Husky 515 Instant Hand Sanitizer; Husky Instant Hand Sanitizer; HyTouch; Hydrating Instant Hand Sanitizer; Hygenix Sanitizer; Hygiene; Hygiene Master Instant Hand Sanitizer; I LOVE NY Hand Sanitizer Vanilla Scent; ICI Alcohol Hand Sanitizer; ICS3 Blue Healthcare Hand Antiseptic; INSTANT HAND SANITIZER WITH ALOE and VITAMIN E; INSTANT Hand Sanitizer Extra Enriched With Vitamin E Lemon Fresh Scent; INSTANT Hand Sanitizer Extra Enriched With Vitamin E Strawberry Scent; INSTANT Hand Sanitizer Extra Enriched With Vitamin E Vanilla Scent; INSTANT Hand Sanitizer with Moisturizers All In One; Icee Blue Raspberry Scented Hand Sanitizer; Icee Strawberry Scented Hand Sanitizer; Icee White Cherry Scented Hand Sanitizer; Icing; Icing Iced Frosting Anti-Bacterial Hand Sanitizer; Icing Peppermint Candy Anti-Bacterial Hand Sanitizer; Icing Winterberry Anti-Bacterial Hand Sanitizer; Ihs 2000 Instant Hand Sanitizer; Ili Hand Sanitizer Instant; Industrial Antiseptic Sanitizer; Infectiguard Fast Acting Antiseptic Hand Sanitizer; Infectiguard Hand Sanitizer; Insect Sting Relief Pad; Insect String Relief pad; InstaFresh; Instant Anti-bacterial Hand Gel; Instant Foam; Instant Foam Hand Sanitizer; Instant Foaming Hand Sanitizer; Instant Hand Antiseptic; Instant Hand Sanitizer; Instant Hand Sanitizer (Gel-Type); Instant Hand Sanitizer - Clear; Instant Hand Sanitizer - Cocoa Butter; Instant Hand Sanitizer - Ice Clear; Instant Hand Sanitizer - Original; Instant Hand Sanitizer - Strawberry Scented; Instant Hand Sanitizer - Vanilla Scented; Instant Hand Sanitizer 2oz Bonus pack; Instant Hand Sanitizer Aloe Vera; Instant Hand Sanitizer Blue Raspberry; Instant Hand Sanitizer Bubble Gum; Instant Hand Sanitizer Candy Apple; Instant Hand Sanitizer Chinese Cherry Blossom; Instant Hand Sanitizer Citrus Scent; Instant Hand Sanitizer Citrus Zest; Instant Hand Sanitizer Convenience Pack; Instant Hand Sanitizer Extra Enriched With Vitamin E Bead Lemon Fresh Scent; Instant Hand Sanitizer Extra Enriched With Vitamin E Bead Strawberry Scent; Instant Hand Sanitizer Extra Enriched With Vitamin E Bead Vanilla Scent; Instant Hand Sanitizer Foam; Instant Hand Sanitizer Fresh Aloe; Instant Hand Sanitizer Fresh Lemon Scented; Instant Hand Sanitizer Gel; Instant Hand Sanitizer Green Apple Scented; Instant Hand Sanitizer HAND SANITIZER BEACH; Instant Hand Sanitizer Harmon; Instant Hand Sanitizer KickPrints; Instant Hand Sanitizer Kuretek; Instant Hand Sanitizer Lavender; Instant Hand Sanitizer Lemon Drop; Instant Hand Sanitizer Original; Instant Hand Sanitizer Original With Aloe Vera And Vitamin E; Instant Hand Sanitizer Original With Moisturizer and Vitamin E; Instant Hand Sanitizer Strawberry Kiss; Instant Hand Sanitizer Strawberry Scented; Instant Hand Sanitizer Sugar Plum; Instant Hand Sanitizer TENNder CARE; Instant Hand Sanitizer Twisted Peppermint; Instant Hand Sanitizer Unscented; Instant Hand Sanitizer Unscented With Moisturizer and Vitamin E; Instant Hand Sanitizer Vanilla Noel; Instant Hand Sanitizer With Aloe; Instant Hand Sanitizer With Aloe and Vitamin E; Instant Hand Sanitizer With Moisturizers; Instant Hand Sanitizer With Moisturizers (Vitamin E and Aloe); Instant Hand Sanitizer With Moisturizers and Vitamin E; Instant Hand Sanitizer With Shea Butter; Instant Hand Sanitizer With Shea Butter Beads; Instant Hand Sanitizer With Vitamin E; Instant Hand Sanitizer and Moisterizer; Instant Hand Sanitizer with Moisturizers Aloe Scented; Instant Hand Sanitizer with Moisturizers Ocean Scented; Instant Hand Sanitizer with Moisturizers Unscented; Instant Hand Sanitizer with moisturizers (aloe vera and moisturizers); Instant Hand sanitizer; Instant Skin Sanitizer; Instant hand Sanitizer; InstantFOAM alcohol hand sanitizer; International First Amenity Kit; Iodine; Iodine 0.5% Alcoholic Soln; Iodine Tincture Mild; Iris Antimicrobial Hand Sanitizer; Iris Hand Sanitizing Wipes; Irresistible Apple Scented Hand Sanitizer; Isagel B-I-B; Island Cotton; Iso-Quin; Iso-quin; Isopropyl Alcohol; Janitech Jan-HS-40 Instant Hand Sanitizer; Japanese Blossom Scented Hand Sanitizer; Japanese Cherry Blossom; Jasmine Tea and Basil Antibacterial Hand Sanitizer; Jasmine and Green Tea Antibacterial Sanitizer; Jelly Bean Antibacterial Hand; Jelly Bean Hand Sanitizer; Jingle Berry Scented Antibacterial Hand Sanitizer; John Deere Instant Hand Sanitizer; Jurlique Moisturizing Hand Sanitizer Natural Antibacterial; Just 4 Girl Waterless Anti Bacterial Hand Sanitizer Berry Blast; Justice ANTI BAC HAND SANITIZER; Justice Aztec Apple Scented Anti-Bacterial Hand Sanitizer; Justice BFF BERRY Scented Anti-bacterial Hand Sanitizer; Justice BFF Cotton Candy Scent Anti-Bacterial Hand Sanitizer; Justice BFF go together like unicorns glitter Berry Scented Anti-Bacterial Hand Sanitizer; Justice Be Strong Bright Citrus Scented Anti-Bacterial Hand Sanitizer; Justice Beautiful Berry Scent Anti-bacterial Hand Sanitizer; Justice Berry Blast Scented Anti-bacterial Hand Sanitizer; Justice Berry Twist Scent Antibacterial Hand Sanitizer; Justice Blue berry Scent ANTI BAC HAND SANITIZER; Justice Blueberry Scent Anti-bacterial Hand Sanitizer; Justice Boho Berry Scent Antibacterial Hand Sanitizer; Justice Bright Citrus Scent Anti-Bacterial Hand Sanitizer; Justice Bubble Gum Scent Anti-bacterial Hand Sanitizer; Justice Cactus Vanilla Scent Anti-Bacterial Hand Sanitizer; Justice Cool Candy Pink Scented Anti-Bacterial Hand Sanitizer; Justice Cotton Candy Scent ANTI BAC HAND SANITIZER; Justice Cotton Candy Scent Anti-bacterial Hand Sanitizer; Justice Create Inspire Explore Blueberry Scent Anti-Bacterial Hand Sanitizer; Justice Dance Berry Blast Scented Anti-Bacterial Hand Sanitizer; Justice Dance Orange Scent Anti-Bacterial Hand Sanitizer; Justice Dazzling Berry Scented Anti-Bacterial Hand Sanitizer; Justice Electric LIME Bright Citrus Scented Anti-Bacterial Hand Sanitizer; Justice Elephant Mango Scent Anti-Bacterial Hand Sanitizer; Justice Frosted Cupcake Scented Anti-Bacterial Hand Sanitizer; Justice Frosted Vanilla Scented Anti-Bacterial Hand Sanitizer; Justice Fruit Punch Scent Antibacterial Hand Sanitizer; Justice Fruit Punch Scented Anti bacterial Hand Sanitizer; Justice Fruit Scent ANTI BAC HAND SANITIZER; Justice Grape Scent ANTI BAC HAND SANITIZER; Justice Hamburger Green Apple Scent Anti-Bacterial Hand Sanitizer; Justice Latte Cotton Candy Scent Anti-Bacterial Hand Sanitizer; Justice Lavender DREAM Scented Anti-Bacterial Hand Sanitizer; Justice Letter A Blueberry Scent Anti-bacterial Hand Sanitizer; Justice Letter B Blueberry Scent Anti-bacterial Hand Sanitizer; Justice Letter C Blueberry Scent Anti-bacterial Hand Sanitizer; Justice Letter D Blueberry Scent Anti-bacterial Hand Sanitizer; Justice Letter E Blueberry Scent Anti-bacterial Hand Sanitizer; Justice Letter G Blueberry Scent Anti-bacterial Hand Sanitizer; Justice Letter H Blueberry Scent Anti-bacterial Hand Sanitizer; Justice Letter I Blueberry Scent Anti-bacterial Hand Sanitizer; Justice Letter J Blueberry Scent Anti-bacterial Hand Sanitizer; Justice Letter K Blueberry Scent Anti-bacterial Hand Sanitizer; Justice Letter L Blueberry Scent Anti-bacterial Hand Sanitizer; Justice Letter M Blueberry Scent Anti-bacterial Hand Sanitizer; Justice Letter N Blueberry Scent Anti-bacterial Hand Sanitizer; Justice Letter P Blueberry Scent Anti-bacterial Hand Sanitizer; Justice Letter R Blueberry Scent Anti-bacterial Hand Sanitizer; Justice Letter S Blueberry Scent Anti-bacterial Hand Sanitizer; Justice Letter T Blueberry Scent Anti-bacterial Hand Sanitizer; Justice Letter T Frosted Berry Scented Anti-Bacterial Hand Sanitizer; Justice Love Hugs Me and You Cotton Candy Scent Anti-Bacterial Hand Sanitizer; Justice MAGICAL MELON Scented Anti-bacterial Hand Sanitizer; Justice Meow Mint Scented Anti-bacterial Hand Sanitizer; Justice Mermaid Mix Berry Scent Anti-Bacterial Hand Sanitizer; Justice Mixed Berry ANTI BAC HAND SANITIZER; Justice Mixed Berry Scent Antibacterial Hand Sanitizer; Justice Mixed berry Scent ANTI BAC HAND SANITIZER; Justice Outta This World Vanilla Scented Anti-bacterial Hand Sanitizer; Justice PUPPY LOVE Cotton Candy Scent Anti-bacterial Hand Sanitizer; Justice Paris Punch Scent Antibacterial Hand Sanitizer; Justice Peace Love Lemonade Scented Anti-Bacterial Hand Sanitizer; Justice Peppermint Twist Scented Anti-Bacterial Hand Sanitizer; Justice Pinapple Pizazz Scented Anti-bacterial Hand Sanitizer; Justice Pineapple Scent Anti-Bacterial Hand Sanitizer; Justice Plum Berry Scented Anti-Bacterial Hand Sanitizer; Justice Pop Corn Vanilla Scent Anti-Bacterial Hand Sanitizer; Justice Rabbit Strawberry Scent Anti-Bacterial Hand Sanitizer; Justice Rainbow Raspberry Scented Anti-bacterial Hand Sanitizer; Justice Rhinestone Raspberry Scent Anti-Bacterial Hand Sanitizer; Justice SPARKLING BERRY Scented Anti-Bacterial Hand Sanitizer; Justice Shimmer Strawberry Scent Anti-bacterial Hand Sanitizer; Justice Sparkling Vanilla Scented Anti-Bacterial Hand Sanitizer; Justice Strawberry Macaroon Scented Anti-Bacterial Hand Sanitizer; Justice Strawberry Scent ANTI BAC HAND SANITIZER; Justice Strawberry Scent Anti-bacterial Hand Sanitizer; Justice Strawberry Stardust Scented Anti-Bacterial Hand Sanitizer; Justice Strawberry Swirl Scented Anti-Bacterial Hand Sanitizer; Justice Sugar Swirl Scent Antibacterial Hand Sanitizer; Justice Sugared DONUT Scented Anti-Bacterial Hand Sanitizer; Justice Sweet Cinnamon Scented Anti-Bacterial Hand Sanitizer; Justice Tortoise Green Apple Scent Anti-Bacterial Hand Sanitizer; Justice Tribal Tangerine Scent Anti-bacterial Hand Sanitizer; Justice Tucan Strawberry Scent Anti-Bacterial Hand Sanitizer; Justice Twist Peppermint Scented Anti-Bacterial Hand Sanitizer; Justice VANILLA Latte Scented Anti-Bacterial Hand Sanitizer; Justice Vanilla ANTI BAC HAND SANITIZER; Justice Vanilla Latte Scented Anti-Bacterial Hand Sanitizer; Justice Vanilla Scent ANTI BAC HAND SANITIZER; Justice Vanilla Scent Anti-bacterial Hand Sanitizer; Justice WATERMELON Scented Anti-bacterial Hand Sanitizer; Justice Watermelon Scent Antibacterial Hand Sanitizer; Justice Wild Melon Scented Anti-Bacterial Hand Sanitizer; Justice very BERRY Grape Scented Anti-Bacterial Hand Sanitizer; KDS Lab Liquid Styptic; KE-53PS Gel Hand Sanitizer; KE-53PS Hand Sanitizer; KLAR and DANVER INSTANT HAND SANTIZER; KLEENEX Antiseptic Hand Rub with Moisturizers; KLEENEX Hand Sanitizer; Kay Alphasan Hand Sanitizer; Keystone Liquid Hand Sanitizer; KidzStuff Hand Sanitizer; Kindest Kare Air-Infused Foam Antiseptic Handrub; Kindest Kare Foam Antiseptic Handrub with Enhanced Emollients; Kleen Instant Hand Sanitizer with Moisturizers; Kleenex Hand Sanitizer, Green Certified; Kleenex Instant Hand Sanitizer; Kleenex Moisturizing Hand Sanitizer, Hydrates Skin; Kleenex Moisturizing Instant Hand Sanitizer; Kleenex Ultra Moisturizing Hand Sanitizer; Knockout Hand Sanitizer; Kong HandiPOD; Kroger Waterless Hand Sanitizer Citrus Scent; Kroger Waterless Hand Sanitizer Citrus Scent With Moisturizers And Vitamin E; Kroger Waterless Hand Sanitizer With Aloe; Kroger Waterless Hand Sanitizer With Aloe With Moisturizers And Vitamin E; LA Bodies Purita Anti-Bacterial Hand Sanitizer; LEADER Mild Iodine; LETTERS Lavender Hand Sanitizer; LETTERS Lemon Verbena Hand Sanitizer; LETTERS Ocean Blue Hand Sanitizer; LONDON Hand Sanitizer Vanilla Scent; LUCASOL Hand Instant Hand Sanitizer; La mer Hand Sanitizer; Lalaloopsy Watermelon Antiseptic Hand Cleansing; Landrum Instant Hand Sanitizer; Laughing Linen; Lavender; Lavender Antibacterial Hand Sanitizer; Lavender Antibacterial Hand Sanitizer with Aloe and Vitamin E; Lavender Hand Sanitizer; Lavender Vanilla Anti-Bacterial Hand Sanitizer; Lavender Waterless Hand Wash; Lavender de Provence Antibacterial Hand Sanitizer; Le Techniq Aloe; Le Techniq Antibacterial Hand Island Citrus; Le Techniq Hand Sanitizer Apple Pomegranate; Le Techniq Hand Sanitizer Jasmine Basil; Le Vital Berry Kissed; Le Vital Blossom Delight; Le Vital Dreamy Glow; Le Vital Hidden Passion; Le Vital Japanese Cherry Blossom; Le Vital Midnight Rush; Le Vital Moon to Light; Le Vital Sweet Pea; Le Vital Vanilla Heaven; Le Vital Wake Me Up; Leap Frog Fresh HAND SANITIZER; Lemon Hand Sanitizer; Lemon Lime Hand Sanitizer; Lemon Scented Hand Sanitizer; Lemon Thyme Antibacterial Hand Sanitizer; Lemon Verbena Hand Sanitizer; Lemon Verbena Waterless Hand Wash; Lemon splash anti-bacterial SCENTED HAND SANITIZER; Lisa Frank Bubblegum Antiseptic Hand Cleansing; Little Ones Baby Fresh Sanitizer; Little Ones Lavender; Little Ones Original; Lollipop; Lollipop Scented Anti-bacterial Hand Gel; Love Hand Sanitizer; Love You Berry Much; Love and Beauty Coconut Vanilla Essence Antibacterial Scented Hand Sanitizer; Love and Beauty Floral Rose Essence Antibacterial Scented Hand Sanitizer; Love and Beauty Grapefruit Citrus Essence Antibacterial Scented Hand Sanitizer; Love and Beauty Lemon Fresh Essence Antibacterial Scented Hand Sanitizer; Love and Beauty Melon and Mint Anti-Bacterial Hand Sanitizer; Love and Beauty Peach Mango Anti-Bacterial Hand Sanitizer; Love and Beauty Sweet Berry Essence Antibacterial Scented Hand Sanitizer; Lovely Lavender; Lucky Hand Sanitizer Citrus Zest; Lucky Hand Sanitizer Lavender; Lucky Hand Sanitizer with Aloe Vera; Lucky Hand Sanitizer with Vitamin E; Lucky Instant Hand Cleanser with Aloe Vera; Lucky Instant Hand Cleanser with Vitamin E; Lucky Instant Hand Sanitizer Citrus Zest; Lucky Instant Hand Sanitizer with Aloe Vera; Lucky Instant Hand Sanitizer with Vitamin E; Lucky Instant Hand Sanitizer with Vitamin E and Moisturizers; Lucky Sanitizing Hand Towels; Luscious Lime; Lynx san a foam; MADA Hand Sanitizing Wipes; MY INSTANT HAND SANITIZER with aloe and vitamin e; Mada; Mandarin Antibacterial Hand Sanitizer; Mandarin Orange Anti-Bacterial Hand Sanitizer; Mandarin Orange and Lemon Antibacterial Sanitizer; Mango Antibacterial Hand Sanitizer; Mango Madness Hand Sanitizer; Mango papaya anti-bacterial SCENTED HAND SANITIZER; Manugel 85; Marshmallow; Marshmallow Antibacterial Hand; Marshmallow Scented Anti-bacterial Hand Gel; Marvel Iron Man 3 Hand Sanitizer; Marvel The Avengers Hand Sanitizer; Marvel Ultimate Spider-man Berry Scented Antiseptic Hand Cleansing; Mayfair Anti-bacterial Hand Sanitizer; McD Hand Sanitizer; McKesson Hand Sanitizer; Mcd Antiseptic Hand Gel 70%; Med Plus; Medi-Pak Performance Instant Hand Sanitizer; Medi-Pak Performance Instant Hand Sanitizer with Aloe; Medi-wipes; MediChoice Hand Sanitizer; MediSoft; Medimaxx Citrus; MegaFresh Hand Sanitizer; Mellow Hand Sanitizer (aloe and Vitamin E); Mellow Hand Sanitizer (original) With Moisturizer and Vitamin E; Mellow Instant Hand Sanitizer Original; Mellow Instant Hand Sanitizer With Aloe and Vitamin E; Members Selection Aloe Vera Sanitizer; Menticol first aid antiseptic and external analgesic lotion; Microban; Microban 80; Microban Medical; Microban Unscented; Mini Hand Sanitizer - Coconut and Lime; Mini Hand Sanitizer - Orange and Lemon; Miss Spa; Mist; Mix Berries Anti Bacterial Hand Sanitizer; Modesa; Modesa Antibacterial Hand Sanitizer Lemon; Modesa anti-bacterial hand gel; Moist SURE; Moisturizing Hand Sanitizer; Moisturizing Instant Hand Sanitizer; Mojito Sun; Mommy Tillia Antibacterial Hand; Moonglade Hand Sanitizer; Morning Fresh Hand Sanitizer; Mousse Vite; Mrs. Meyers Clean Day Hand Sanitizer Basil Scent; Mrs. Meyers Clean Day Hand Sanitizer Lavender Scent; Mrx Liq; Mueller Instant Hand Sanitizer; Multimist Healthy Hands Gel 60%; My Little Pony Antibacterial Hand Sanitizer with Moisturizers; My Little Pony Grape Antiseptic Hand Cleansing; MyTerra Hand Sanitizer Foam; Naturally Nova Scotia Hand Sanitizer; Naturals Cucumber Melon Antibacterial Hand; Naturals Pomegranate and Mango Antibacterial Hand; Naturals Vanilla Antibacterial Hand; Nickelodeon Jojo Siwa Hand Sanitizer Berry Sweet Scent; North Safety First Aid Kit 35P10BBK; North Safety First Aid Kit 553001; North Safety First Aid Kit 554001; North Safety First Aid Kit 68G100; North Safety First Aid Kit SF00000669; North Safety First Aid Kit SF00003588; North Safety First Aid Kit Z019814; North Safety First Aid Kit Z42500MG; North Safety First Aid Kit Z42750; North Safety First Aid Kit Z63157978; North Safety First Aid Kit Z63158027; Northside Hospital Amenity Kit--GI Dept; Northside Hospital Bereavement; Northside Hospital H.E.A.R.T. Strings Bag; Northside Hospital Mothers Bag; NovaClenz Instant Hand Sanitizer; Nu Skin Epoch; O BlancTis; ONID Wipe; Ocean Breeze; Ocean Breeze Antibacterial Hand; Ocean Breeze Antibacterial Hand Sanitizer with Aloe and Vitamin E; Ocean Breeze Scented Hand Sanitizer; Ocean Hand Sanitizer; Ocean Waterless Hand Wash; Olive Antibacterial Hand Sanitizer; On Guard Hand Sanitizing Wipe; On Guard Sanitizing Mist; One Step - Instant Hand Sanitizer; One Step Hand Sanitizer; One Step Hand Sanitizer Aloe; One Step Sanitizer; One Step Wipes; Orange Blossom Antibacterial Hand; Orange Scented Hand Sanitizer; Orange Spice Scented Antibacterial Hand Sanitizer; Orchid Antibacterial Vanilla and Apple Blossom; Orchid By H E B Jasmine Tea and Basil; Orchid By H E B Vanilla Brown Sugar; Orchid Jasmine Tea and Basil; Orchid Sugar Cookie; Organic Lavender Hand Sanitizer; Osceola Skin Care Sani-Gel Instant Hand Sanitizer; Out Of The Blue Scented Hand Sanitizer; P.O.V. Aloe Vera Hand Sanitizer; P.O.V. Vitamin E Hand Sanitizer; PC HanSan; PDI Alcohol Prep Pad Large and Medium; PDI Alcohol Prep Pad Sterile Large and Medium; PDI Alcohol Swabstick Threes and Ones; PDI Sani Hands; PDI Sani-Hands ALC Antimicrobial Alcohol Gel Hand Wipes; PDI Sani-Hands Instant Hand Sanitizing Wipes; PDI Sani-Hands for Kids Antimicrobial Alcohol Gel Hand Wipes; PDI Sani-HandsInstant Hand Sani Instant Hand Sanitizing Wipes; PF Hand Sanitizing; PMS-oxtriphylline Elixir; PRIME SOURCE Hand Sanitizer; PRO-LINK Hand Sanitizer; PURELL Advanced E3 Rated Instant Hand Sanitizer; PURELL Advanced E3 Rated Instant Hand Sanitizer Foam; PURELL Advanced Green Certified Instant Hand Sanitizer; PURELL Advanced Hand Sanitizer Aspen Retreat; PURELL Advanced Hand Sanitizer Biobased Content; PURELL Advanced Hand Sanitizer Blushing Pink Orchid; PURELL Advanced Hand Sanitizer Fresh Peppermint Cheer; PURELL Advanced Hand Sanitizer Grandma s Apple Delight; PURELL Advanced Hand Sanitizer Holiday Spice; PURELL Advanced Hand Sanitizer Mandarin Medley; PURELL Advanced Hand Sanitizer Naturals Gel; PURELL Advanced Hand Sanitizer Nightime Winterberry; PURELL Advanced Hand Sanitizer Nourishing; PURELL Advanced Hand Sanitizer O Christmas Tree; PURELL Advanced Hand Sanitizer Ocean Kiss; PURELL Advanced Hand Sanitizer Oven-Baked Apples; PURELL Advanced Hand Sanitizer Pumpkin Delight; PURELL Advanced Hand Sanitizer SpongeBob Splash; PURELL Advanced Hand Sanitizer Spring Bloom Gel; PURELL Advanced Hand Sanitizer Sweet Papaya Mango; PURELL Advanced Hand Sanitizer Sweet Plum; PURELL Advanced Hand Sanitizer Ultra Nourishing Foam; PURELL Advanced Hand Sanitizer Warm Fall Spice; PURELL Advanced Hand Sanitizer Warm Fireplace Gathering; PURELL Advanced Hand Sanitizer Watermelon Splash; PURELL Advanced Hand Sanitizer Winter Wonderland Spice; PURELL Advanced Hand Sanitizer Winterberry Delight; PURELL Advanced Hand Sanitizer Wintergreen Mint; PURELL Advanced Hand Sanitizer be Blissful; PURELL Advanced Hand Sanitizer be Peaceful; PURELL Advanced Hand Sanitizer be Vibrant; PURELL Advanced Instant Hand Sanitizer; PURELL Advanced Instant Hand Sanitizer Fragrance Free; PURELL Advanced Skin Balancing Hand Sanitizer; PURELL Advanced Skin Nourishing Instant Hand Sanitizer; PURELL Advanced with Aloe Instant Hand Sanitizer; PURELL Cottony Soft; PURELL Education Advanced Hand Sanitizer Gentle and Free Foam; PURELL Foaming Hand Sanitizer; PURELL Food Processing Advanced Hand Sanitizer E3 Foam; PURELL Foodservice Advanced Hand Sanitizer Foam; PURELL Foodservice Advanced Hand Sanitizer VF481 Gel; PURELL Green Certified Instant Hand Sanitizer Foam (ETHYL ALCOHOL); PURELL Healthcare Advanced Hand Sanitizer Foam; PURELL Healthcare Advanced Hand Sanitizer Gel; PURELL Healthcare Advanced Hand Sanitizer Gentle and Free Foam; PURELL Healthcare Advanced Hand Sanitizer ULTRA NOURISHING Foam; PURELL Instant Hand Sanitizer Foam (ETHYL ALCOHOL); PURELL Instant Hand Sanitizer Moisture Therapy; PURELL Instant Hand Sanitizer Ocean Mist; PURELL Professional Advanced Hand Sanitizer Foam; PURELL Professional Advanced Hand Sanitizer Fragrance Free Foam; PURELL Professional Advanced Hand Sanitizer Fragrance Free Gel; PURELL Professional Advanced Hand Sanitizer Gel; PURELL VF481 Hand Sanitizer; PURELL Waterless Surgical Scrub; Pacific Blue Select Gel Hand Sanitizer Fragrance and Dye Free; Pacific Blue Ultra Foaming Fragrance Free; Pacific Garden E3 Rated Foam Hand Sanitizer; Pacific Garden Foam Hand Sanitizer, Fragrance Free, Dye Free; Panrosa Instant Antiseptic Hand Sanitizer With Moisturizers; Papaya Mango Antibacterial Hand; Paris Hand Sanitizer Vanilla Scent; Passion Fruit Hand Sanitizer; Passion Fruit Kiss; Paw Patrol Chase Hand Sanitizer (berry Scent); Paw Patrol Jkye Hand Sanitizer (berry Scent); Paw Patrol Mashall Hand Sanitizer (berry Scent); Peach Mango Anti-Bacterial Hand Sanitizer; Penguin Icicles; Peppermint Hand Sanitizer; Peppermint Hand Sanitizer None; Peppermint Ice anti-bacterial SCENTED HAND SANITIZER; Peppermint Swirl Antibacterial Hand Sanitizer; Perfect Purity Advanced Hand Refreshing Aloe; Perfect Purity Advanced Hand Sanitizer Refreshing; Persist Povidone Iodine Prep; Personal Care; Personal Care Hand Sanitizer; Personal Care Hand Sanitizer Aloe; Personnelle Desinfectant Pour Les Mains; Pier 1 Imports Blueberry Parfait Anti-Bacterial Hand Sanitizer; Pier 1 Imports Cherry Anti-Bacterial Hand Sanitizer; Pier 1 Imports Crisp Bamboo Anti-Bacterial Hand Sanitizer; Pier 1 Imports Ginger Peach Anti-Bacterial Hand Sanitizer; Pier 1 Imports Iced Cookie Anti-Bacterial Hand Sanitizer; Pier 1 Imports Lavender Anti-Bacterial Hand Sanitizer; Pier 1 Imports Lavender Vanilla Anti-Bacterial Hand Sanitizer Pier 1 Imports; Pier 1 Imports Lily blossom Anti-Bacterial Hand Sanitizer; Pier 1 Imports Melon and Mint Anti-Bacterial Hand Sanitizer; Pier 1 Imports Passion Fruit Anti-Bacterial Hand Sanitizer; Pier 1 Imports Sugared Plum Anti-Bacterial Hand Sanitizer; Pier 1 Imports Vanilla Mint Anti-Bacterial Hand Sanitizer; Pineapple Paradise; Pink Grape Fruit Waterless Anti-bacterial Hand Sanitizer; Pink Grapefruit Antibacterial Hand Sanitizer; Pink Lemonade Hand Sanitizer; Pink Macaroon Hand Sanitizer; Pioneer Eclipse Touche Foaming Hand Sanitizer; Piranha Brand Foaming Alcohol Hand Sanitizer; Pl-0591; Pl-1807; Pl-1808; Pomegranate Rose Hand Sanitizer; Pomegranate Scented Hand Sanitizer; Preference Hand Sanitizer; Premier Value Iodine Tincture Mild; Premium Hand Sanitizer; Premium Hand Sanitizer Cucumber Green Tea; Premium Hand Sanitizer Nectarine Mint; Premium Hand Sanitizer with Aloe; Pretty Peppermint Antibacterial; Pretty Pump Hand Sanitizer; Pretty Punch; Pretty in Paris Hand Sanitizer bodycology; Pretty in Paris Kit Bodycology; Prevail Hand Sanitizer Lemongrass; Prevail Hand Sanitizer White Tea; Prevail One Step; Prevail Pomegranate Hand Sanitizer; Prevent; Prevent Hand Sanitizer; Prime-cide; Pro Advantage Instant Hand Sanitizer; ProCure Hand Sanitizing; ProFormance Series Foam Alcohol Hand Sanitizer; Proandre; Proformance Foam Alcohol Sanitizer; Protect U Guard 62% Foaming Hand Sanitizer; Protecteav; Protection; Pumpkin Spice Antibacterial Hand Sanitizer; Pumpkin pie anti-bacterial SCENTED HAND SANITIZER; Pure Foam; Pure Gel; Pure Hands; Pure Spring; Pure Spring Lemon and Mint; Pure Spring Strawberry and Pomegranate; PureForce; Pureforce; Purehold Antiseptic Instant Hand Sanitizer; Purel Hand Sanitizer; Purell Advanced Hand Sanitizer Coconut Beach Siesta; Purell Advanced Hand Sanitizer Fresh Peach Blossoms; Purell Advanced Hand Sanitizer Inspiring Island Getaway; Purell Advanced Hand Sanitizer Moonlit Moments; Purell Advanced Hand Sanitizer Refreshing Florals; Purell Advanced Hand Sanitizer Revitalizing Rain; Purell Advanced Hand Sanitizer Sprinkled With Love; Purell Advanced Hand Sanitizer Tranquil Sunset; Purell Advanced Hand Sanitizer Warm Holiday Treats; Purell Advanced Hand Sanitizer Winter Jubilee; Purell Advanced Refreshing; Purell Advanced Refreshing Aloe; Purell Alcohol Formulation; Purell Instant Ultra; Purell Personal Pack Sanitizing; Purell Sanitizing Hand Wipes; Purgel; Puritan Hand Sanitizer; Purmist; Puro 70 Percent Alcohol Foaming Hand Sanitizer; Purrfect Cherry; Purrfect Rasberry HAND SANITIZER; Purse Essentials hand sanitizer Anti-Bacterial Hand Berry Sorbet; Purse Essentials hand sanitizer Anti-Bacterial Hand Vanilla Sugar; Purse Essentials hand sanitizer Anti-Bacterial Hand Wild Passion Flower; QC Iodine Tincture Mild; QSR Hand Sanitizer; Qc 8oz Instant Hand Sanitizer (original); Quality Choice Iodides Tincture; Quality Choice Iodine Tincture Mild; Quick Fix - Instant Hand Sanitizer; Quik Gel; Quik Spray; Quik Wipes; Quik-Care; Quik-Care Waterless Antimicrobial Foaming Hand Rub; RUE 21 Apple Anti Bacterial Hand Sanitizer; RUE 21 Dream Dance Love Vanilla Spice Anti Bacterial Hand Sanitizer; RUE 21 Fallen Vixen Anti Bacterial Hand Sanitizer; RUE 21 Free Spirit Fresh Flowers Anti Bacterial Hand Sanitizer; RUE 21 Legend Blueberry Anti Bacterial Hand Sanitizer; RUE 21 Love Cherry Blossom Anti Bacterial Hand Sanitizer; RUE 21 Paris Creamsicle Anti Bacterial Hand Sanitizer; RUE 21 Queen Cherry Anti Bacterial Hand Sanitizer; RUE 21 Sugar Cookie Anti Bacterial Hand Sanitizer; RUE 21 Young Strawberry Anti Bacterial Hand Sanitizer; RUE Beaute Cherry Hand Sanitizer; RUE Beaute Grapefruit Hand Sanitizer; RUE Beaute Strawberry Hand Sanitizer; RUE Beaute Vanilla Cupcake Hand Sanitizer; RUE21 Apple Spice Antibacterial Hand Sanitizer; RUE21 Cherry Antibacterial Hand Sanitizer; RUE21 Cherry Blossom Antibacterial Hand Sanitizer; RUE21 Cotton Candy Antibacterial Hand Sanitizer; RUE21 Doughnut Sprinkles Antibacterial Hand Sanitizer; RUE21 Midnight Musk Antibacterial Hand Sanitizer; RUE21 Ocean Breeze Antibacterial Hand Sanitizer; RUE21 Peppermint Twist Antibacterial Hand Sanitizer; RUE21 Posh Antibacterial Hand Sanitizer; RUE21 Runway 21 Antibacterial Hand Sanitizer; RUE21 Strawberry Antibacterial Hand Sanitizer; RUE21 Sugar Cookie Antibacterial Hand Sanitizer; RUE21 Vanilla Spice Antibacterial Hand Sanitizer; Raining Rose Antiseptic Hand Sanitizer; Raspberry Guava Antibacterial; Raspberry Hand Sanitizer; Raspberry Vanilla Scented Waterless Hand Sanitizer; Raw Sugar Hand Sanitizer- Coconut and Lemon Verbena; Raw Sugar Hand Sanitizer- Peppermint and Sea Salt.; Raymond Waites Gerber Daisy Waterless Anti-bacterial Hand Sanitizer; Raymond Waites Honeysuckle Rose Waterless Anti-bacterial Hand Sanitizer; Ready America First Aid Outdoor- 107 Pieces; Ready America First Aid Pocket - 33 Pieces; Recens; Recens A; Recens Foam; Recens Hand Sanitizer Wipes; Recens Ultra; Red Hot Cinnamon; Redeem; RediCleanse Instant Hand Sanitizer; Refill 6; Refresh Foaming Instant Hand Sanitizer; Refresher; Regimen; Regular Anti Bacterial Hand Sanitizer; Renewal Hand Sanitizing Wipes; Rexall Hand Sanitizer; Rite Aid Decolorized Iodine; Rite Aid Instant Hand Sanitizer; Rite Aid Instant Hand Sanitizer With Moisturizers; Rite Aid Renewal Moisturizers and Vitamin E; Rite Aid Renewal With Moisturizers; Ritz Spritz Mulled Cranberry; Royal 70-percent Alcohol Foam Hand Sanitizer; Royal Hand Sanitizer; Rubbing; Rubbing Alcohol Compound Liq 70%; Rubbing Alcohol Compound/poison; Rue 21 Asian Spice Anti-Bacterial Hand Sanitizer; Rue21 Coco Breeze Anti-Bacterial Hand Sanitizer; Rue21 Island Fruits Anti-Bacterial Hand Sanitizer; Rue21 Ocean Anti-Bacterial Hand Sanitizer; Rx 100 Citrus Sanitizer; SJ Antibacterial Hand Gel; STAPLES Hand Sanitizer; SUKANG Alcohol Prep Pads Medium; Safe Hands Hand Sanitizer with Alcohol; Safeguard Hand Sanitizer; Safesha Lavender; Safesha Sweet Orange; Safesha Unfragranced; Safeway; Safeway Care Aloe; Safeway Care Hand Sanitizer; Safeway Instant Hand Sanitizing wipes; San-E-foam; San-X E3; Sani; Sani Claw Wipes; Sani Med Citrus Gel Hand Sanitizer; Sani Mousse; Sani Professional Brand Sani-Hands; Sani Professional Brand Sani-Hands Instant Hand Sanitizing Wipes; Sani Professional Brand Sani-Hands for Kids Instant Hand Sanitizing Wipes; Sani Professional Brand Sani-Hands with Tencel Instant Hand Sanitizing Wipes; Sani Professional Brand Sani-HandsInstant Hand Sani Instant Hand Sanitizing Wipes; Sani Soft; Sani Spritz; Sani Wipes; Sani-Care; Sani-Gel; Sani-Hands II Instant Hand Sanitizing Wipes; Sani-Hands Instant Hand Sanitizing Wipes; Sani-Hands for Kids; Sani-Kleen Instant Hand Sanitizer; Sani-Professional Sani-Hands made with Tencel; Sani-Silk; Sani-Smooth; Sani-Soft; Sani-Spritz; Sani-dex Antimicrobial Hand Wipes; SaniFoam; SaniGuard-SF; SaniKlean E3 Hand Sanitizer; SaniSuds Foam Instant Hand Sanitizer; Sanifoam Hand Sanitizer; Sanigizer Plus; Sanitaxe; Sanitex MVP Instant Hand Sanitizer; Sanitizer; Sanitizer Hand Sanitizer; Sanitizing Alcohol Rub; Sanitizing Wipes; SannyTize Hand Sanitizer; SannyTize Hand Sanitizer Wipe; Sans-acne Solution; Santi-Gel Instant Hand Sanitizer; Sassy Strawberry; Satsuma Antibacterial Hand Sanitizer; Scaredy Cat Antibacterial Hand; Scott Moisturizing Instant Hand Sanitizer; Sea Marine Antibacterial; Sedanos Instant Hand Sanitizer With Moistruizing Formula; Select Antiseptic Hand Gel With Aloe; Sephora By Opi Moisturizing Hand Sanitizer; SeptoSan Hand Sanitizer; Servo Stat-Foam; Servo-Stat; Servo-Stat Balm; Shopkins 3D Hand Sanitizer 6 pack; Shopkins 3D Hand Sanitizer DLish Donut; Shopkins 3D Hand Sanitizer Lippy Lips; Shopkins hand sanitizer; Shopko Antibacterial Hand Sanitizer; Sierra Soft Alcohol Foam Sanitizer; Sierra Soft Alcohol Hand Sanitizer; Signature Alcohol Foaming Hand Sanitizer; Silken Hand Sanitizer; Simple Pleasures Antibacterial Hand Sanitizer; Simply Clean Instant Hand Sanitizer; Skin Protectant; Skin Protectant Aloe Vera; Skin Protectant Lavender; Skin Protectant Original; Skin Protectant Sweet Pea; Skin Shield Liquid Bandage; Skintegrity; Skintegrity Foaming Hand Sanitizer Fragrance Free; Skintegrity Instant Hand Sanitizer; Smart San ES Hand Sanitizer Spray; Smart San Hand Sanitizer; Smart San Hand Sanitizer Spray; Smart San Hand Sanitizer Spray Fragrenace-Free; Smart San Healthcare Personnel Handwash; Smart Sense Aloe; Smart Sense Hand Sanitizer Cotton Breeze; Smart Sense Hand Sanitizer Lychee Berry; Smart Sense Original; Smart Sense Vitamin E Sanitizer; SmartCare Shopkins; Snappy Apple Scented Hand Sanitizer; Soft Care Foam Instant Hand Sanitizer; Soft Care Fragrance Free Instant Hand Sanitizer; Soft Care Hand Sanitizer; Soft Care Impact Alcohol Instant Hand Sanitizer; Soft Care Impact Foam Alcohol Foam Instant Hand Sanitizer; Soft Care Impact Mini Instant Hand Sanitizer; Soft Care Instant Hand Sanitizer; Soft N Sure Antiseptic; Soft N Sure Foamed Antiseptic Handrub; SoftSan; Softsoap Instant Hand Sanitizer with moisturizers; Soothe-A-sting; Spa Originals Instant Hand Sanitizer; SpaSoap; Sparkling Snow; Spatheraphy; Spatherapy; Spatherapy Eucalyptus Mint; Spatherapy Grapefruit Nectar; Spatherapy Lavender Jasmine; Spatherapy Lemon Pomegranate; Spatherapy Raspberry Brulee; Spectrum; Spooky PUmpkin Antibacterial Hand Sanitizer; Spooky Vanilla Antibacterial Hand; Spooky Vanilla Antibacterial Hand Sanitizer; Spring Grove Unscented Hand Sanitizer; Staples Instant Hand Sanitizer; Stat-Foam; Stat-Rinse; Sterigel Plus; Sterile Alcohol Prep Pad; Sterillium Comfort; Sterillium Med; Sterillium Rub; Sterillium Rub Fragrance Free; Sting Relief; Stoko Gel Free Instant Hand Sanitizer; Stoko Gel Instant Hand Sanitizer; Stoko Refresh 4in1 Instant Hand Sanitizer; Stoko Refresh 4in1 Instant Hand Sanitizer Sp.; Stoko Refresh Foaming Instant Hand Sanitizer; Stoko Sp. Instant Hand Sanitizer; Strawberry Antibacterial Hand Sanitizer; Strawberry Antibacterial Hand Sanitizer with Aloe and Vitamin E; Strawberry Champagne Hand Sanitizer; Strawberry Hand Sanitizer; Strawberry Ice cream Anti-Bacterial Hand Sanitizer; Strawberry Shortcake Berry Best Friends Mixed Berry Antiseptic Hand Cleansing; Strong Iodine Tincture; Sugar Cookies Scented Antibacterial Hand Sanitizer; Sugar Plum; Sugared Pear Antibacterial Hand Sanitizer; SunDrops 73; SunDrops 75; Sunkissed Honeydew Hand Sanitizer; Sunmark Iodides Tincture; Sunmark Iodine; Sunny Day Scented Hand Sanitizer; Sunny Tropicolada; Sunshiny Day Scented Hand Sanitizer; Super Septic; Super Suds Anti-bacterial; Superman Berry Scented Antiseptic Hand Cleansing; Surgicept Waterless, Surgical Handscrub and Healthcare Personnel Handwash; Susan Winget Berries and Cream Hand Sanitizer; Susan Winget Mango Orange Hand Sanitizer; Suture Syringe Medic; Sween Clementine Scented Hand Sanitizer; Sweet Berry Hand Sanitizer; Sweet Candy Kiss Sanitizer Pen; Sweet Daisy Antibacterial Hand Sanitizer; Sweet Grape Antibacterial Hand; Sweet Lemon Antibacterial Hand Sanitizer; Sweet Love Hand Sanitizer Bodycology; Sweet Pea; Sweet Pea Blossom Hand Sanitizer; Sweet Pea Waterless Anti-Antibateria Hand Sanitizer; Sweet pea anti-bacterial SCENTED HAND SANITIZER; Swirling Lollipop; Swiss Hand Guard Antiseptic Handwash Antibacterial; Swiss Hand Guard antiseptic handwash antibacterial; Symmetry Foaming Hand Sanitizer; Symmetry Foaming Hand Sanitizer-Fragrance Free with Aloe and Vitamin E; Symmetry Foaming Hand Sanitizer-Unscented; Symmetry Hand Sanitizer; Synergy 700 Series Hand Sanitizer; Sysco Reliance; T-chem Antimicrobial Hand; T-stat Lot; T-stat Pad-lot; T. H. Antiseptic Hand Gel 70%; T36 Antiseptic Hand Sanitizer; T36 Antiseptic Hand Sanitizer Spray; T36 The Liquid Antiseptic Hand Sanitizer; T36 The Wipe Antiseptic Hand Sanitizer; TC EnrichedFoam Alcohol Hand Sanitizer; TC Instant Hand Sanitizer; TOUGH GUY Instant Hand Sanitizer; TOUGH GUY Instant Hand Sanitizer with Moisturizers and Vitamin E; Take Care Clinic Instant Hand Sanitizer Spray; Tampa General Hospital Instant Hand Degermer; Tazza; Testone CIK; Thario Instant Hand Sanitizer; The Amazing SPIDER-MAN Hand Sanitizer Moisturizing With Vitamin E and Aloe; The Fresh Market Hand Sanitizer With Moisturizers Aloe And Vitamin E; Theophylline Rougier Elixir; Tidy San - Instant Hand Sanitizer; Tincture Green Soap; Tincture Of Iodine 2.5%; Toasted Vanilla Kit Bodycology; Toasted Vanilla Sugar Hand Sanitizer Bodycology; Toasted Vanilla Sugar Kit Bodycology; Tokyo Hand Sanitizer Vanilla Scent; Top Care Decolorized Iodine; Topcare Aloe; Topcare Apple Pomegranate; Topcare Citrus Escape; Topcare Coconut Cream; Topcare Hand Sanitizer; Topcare Jasmine Tea and Basil; Topcare Vitamin E; Tork Hand Sanitizer Alcohol Foam; Tork Hand Sanitizer Alcohol Gel; Tork Premium Hand Sanitizer Foam; Total Skin Care Alcohol Gel Skin Antiseptic; Tough Guy Instant Hand Sanitizer; Toy Cleaner; Trailways hand sanitizer; Trick or Treat Antibacterial Hand; Triseptin; Triseptin Hand and Body Antiseptic; Triseptin Water Aided; Triseptin Waterless; Triseptin Waterless Antiseptic Lotion; Triton HS-777; Trolls Hand Sanitizer; Twisted Peppermint; Ulta Freshwater Mist Anti-Bacterial Hand Sanitizer; Ulta Lavender Woods Anti-Bacterial Hand Sanitizer; Ulta Mandarin Mint Anti-Bacterial Hand Sanitizer; Ulta Pomegranate Lime Anti-Bacterial Hand Sanitizer; Ulta Sparkling Lemon Anti-Bacterial Hand Sanitizer; Ulta Vanilla Sugar Anti-Bacterial Hand Sanitizer; Ultra Care-aid Sanitizer Antiseptic Hand Sanitizer Citric Fragrance with Aloe Vera; Under Paris Hand Sanitizer; United Laboratories 464 PUMP and PROTECT Alcohol Hand Sanitizer; Unscented; Unscented Hand Sanitizer; Unscented Refill; Up and up Alcohol prep pad; VIAMED Alcohol Prep Pad; VIRX Instant Hand Sanitizer with moisturizers and Vitamin E; Vanilla; Vanilla Bean Antibacterial Hand; Vanilla Bean Antibacterial Hand Sanitizer; Vanilla Brown Sugar Scented Hand Sanitizer; Vanilla Cream and Apple Blossom Antibacterial Hand Sanitizer; Vanilla Cupcake Antibacterial Hand Sanitizer; Vanilla Fig Hand Sanitizer; Vanilla Hand Sanitizer; Vanilla Hand Sanitizer with Vitamin E and Aloe; Vanilla Hand Sanitizer with vitamin E and aloe; Vanilla Ice cream Anti-Bacterial Hand Sanitizer; Vanilla Mint Antibacterial Hand Sanitizer; Vanilla Sugar Antibacterial Hand; Vanilla Sugar Antibacterial Hand Sanitizer; Vanilla Sugar Hand Sanitizer; Vanilla cupcake anti-bacterial SCENTED HAND SANITIZER; Vanilla sugar anti-bacterial SCENTED HAND SANITIZER; Very Vanilla; Very Vanilla Antibacterial; Very Vanilla Scented Hand Sanitizer; Vida Mia Decolorized Iodine; Vida Mia Hand Sanitizer; Vida Mia Hand Sanitizer (62%); Vida Mia Hand Sanitizer (70% v/v); Vida Mia Hand Sanitizer Aloe Vera (62%); Vida Mia Hand Sanitizer Aloe Vera (70% v/v); Vindicator Instant Hand Sanitizer; Vinotinto Hand Sanitizer; VioNexus; Vionexus No-rinse Spray; Virx; Virx Hand Sanitizer Liquid; Virx Instant Hand Sanitizer with moisturizers and Vitamin E; Virx Instant Hand Sanitizer with security clip; Visibly Clean Hand Sanitizer; Walgreens Instant Hand Sanitizer; Warm Vanilla Hand Sanitizer; Water Mountain Hand Sanitizer; Waterless Aloe Scented Hand Sanitizer; Waterless Anti Bacterial Hand Sanitizer; Waterless Anti-Bacterial Hand Cleanser; Waterless Fragrance Free Hand Sanitizer; Waterless Hand Sanitizer; Waterless Hand Sanitizer Citrus Scent; Waterless Lavender Scented Hand Sanitizer; Watermelon Anti Bacterial Hand Sanitizer; Wegmans Hand Sanitizer Lychee Berry; Wegmans Hand Sanitizer Thai Bamboo; Well at Walgreens Advanced Hand Sanitizer with Vitamin E; WhiskCare 373; WhiskCare 375; WhiskCare 375 Fragrance Free; White Hand Sanitizer; White Spruce Hand Sanitizer; Wild Passion Flower Anti-bacterial Hand Sanitizer; Wild Strawberry Anti-Bacterial Hand Sanitizer; Wilde Orchid; Winning Hands Alcohol Foaming; Winning Hands Hand Sanitizer; Winter Apple; Winter Vanilla Hand Sanitizer Bodycology; Winter Vanilla Hand Sanitizer None; Witchs Brew Antibacterial Hand; Wyandotte Sanifect E3; XOXO Kit Bodycology; XOXO Kit bodycology; XtraCare Cucumber Melon; XtraCare Hand Sanitizer Moisturize with Vitamin E; XtraCare Hand Sanitizer Moisurize with Vitamin E and Aloe; XtraCare Instand Hand Sanitizer; XtraCare Instant Hand Sanitizer; XtraCare Lavender Chamomile; XtraCare Sweet Pea Blossom; XtraCare Warm Vanilla; XtraCare instant Hand Sanitizer; XtraCare instant Hand Sanitizer Aloe Vera; XtraCare instant Hand Sanitizer Cocoa Butter; XtraCare instant Hand Sanitizer Original; Zep Alcohol Hand Sanitizer; Zep Alcohol Sanitizer; Zep Instant Hand Sanitizer; Zep Professional Alcohol Hand Sanitizing; Zesty Lemon; Zoono Ultra Hand Sanitizer; Zylast Antiseptic; Zylast Antiseptic Surgical Scrub; Zytec Germ Buster Hand Sanitizer; anti-bacterial Hand Cleanser; body luxuries Strawberry Shortcake Antibacterial Hand Sanitizer; body luxuries Vanilla Frosting Antibacterial Hand Sanitizer; chempace SANI-GEL INSTANT SKIN SANITIZER; claires BEyouTIFUL hand sanitizer; enMotion E3 Rated Gel Hand Sanitizer With Moisturizers Fragrance Free, Dye Free; enMotion Foam Hand Sanitizer w-Moisturizers, Fragrance Free; enMotion Foam High Frequency Use; enMotion Foam with Moisturizers fragrance free; enMotion Hand Sanitizer with Moisturizers, Fragrance Free, Dye Free; enMotion High Frequency Foam Hand Sanitizer; enMotion High Frequency Use Foam Hand Sanitizer; everyone Hand Sanitizer Coconut Lemon; everyone Hand Sanitizer Peppermint Citrus; everyone hand SANITIZER Coconut Lemon; ezFoam Foaming Alcohol Hand Sanitizer; germstarCitrus; germstarLuxe; germstarNORO; germstarNORO unscented; hand san INSTANT HAND SANITIZER; infectiguard Fast Acting Antiseptic Hand Sanitizer with Moisturizer; max2originale PROTECTIVE COATING SEALANT; natural extensions Fragrance- Free Instant Hand Sanitizer; symmetry Foaming Hand Sanitizer Fragrance Free with Aloe and Vitamin E; symmetry Foaming Hand Sanitizer with Aloe and Vitamin E; symmetry Hand Sanitizer with Aloe and Vitamin E; whole health Hand Sanitizers 3-pack

>  <SECONDARY_ACCESSION_NUMBERS>  (1) 
APRD00738

>  <SMILES>  (1) 
CCO

>  <SYNONYMS>  (1) 
1-Hydroxyethane; Alcohol; Alcohol (ethyl); Alcohol anhydrous; Alcohol denatured; Alcohol etlico; Alcohol, denatured; Alcool thylique; Alkohol; thanol; thylalkohol; Dehydrated ethanol; etanol; thanol; Ethyl Alcohol; Grain alcohol; Hydroxyethane; Methylcarbinol; Spiritus vini

$$$$
