559
     RDKit          2D

 68 71  0  0  0  0  0  0  0  0999 V2000
    5.9370    1.4207    0.0000 S   0  0  0  0  0  0  0  0  0  0  0  0
    6.3495    0.7062    0.0000 O   0  0  0  0  0  0  0  0  0  0  0  0
    5.5245    2.1351    0.0000 O   0  0  0  0  0  0  0  0  0  0  0  0
    3.7935    0.1832    0.0000 O   0  0  0  0  0  0  0  0  0  0  0  0
    3.7935   -1.4669    0.0000 O   0  0  0  0  0  0  0  0  0  0  0  0
    2.3645    1.0082    0.0000 O   0  0  0  0  0  0  0  0  0  0  0  0
    3.0791   -3.5294    0.0000 O   0  0  0  0  0  0  0  0  0  0  0  0
    5.2224    1.0082    0.0000 N   0  0  0  0  0  0  0  0  0  0  0  0
    5.9370   -0.2294    0.0000 N   0  0  0  0  0  0  0  0  0  0  0  0
    5.2224   -1.4669    0.0000 N   0  0  0  0  0  0  0  0  0  0  0  0
    7.3659   -1.0544    0.0000 N   0  0  0  0  0  0  0  0  0  0  0  0
    6.6515   -2.2919    0.0000 N   0  0  0  0  0  0  0  0  0  0  0  0
    8.7949    3.0707    0.0000 C   0  0  0  0  0  0  0  0  0  0  0  0
    8.0804    2.6582    0.0000 C   0  0  0  0  0  0  0  0  0  0  0  0
    9.5094    3.4832    0.0000 C   0  0  0  0  0  0  0  0  0  0  0  0
    8.3824    3.7852    0.0000 C   0  0  0  0  0  0  0  0  0  0  0  0
    9.2075    2.3563    0.0000 C   0  0  0  0  0  0  0  0  0  0  0  0
    8.0804    1.8332    0.0000 C   0  0  0  0  0  0  0  0  0  0  0  0
    7.3659    3.0707    0.0000 C   0  0  0  0  0  0  0  0  0  0  0  0
    6.6515    1.8332    0.0000 C   0  0  0  0  0  0  0  0  0  0  0  0
    7.3659    1.4207    0.0000 C   0  0  0  0  0  0  0  0  0  0  0  0
    6.6515    2.6582    0.0000 C   0  0  0  0  0  0  0  0  0  0  0  0
    5.2224    0.1832    0.0000 C   0  0  0  0  0  0  0  0  0  0  0  0
    4.5080   -0.2294    0.0000 C   0  0  0  0  0  0  0  0  0  0  0  0
    4.5080   -1.0544    0.0000 C   0  0  0  0  0  0  0  0  0  0  0  0
    5.9370   -1.0544    0.0000 C   0  0  0  0  0  0  0  0  0  0  0  0
    3.0791   -0.2294    0.0000 C   0  0  0  0  0  0  0  0  0  0  0  0
    6.6515   -1.4669    0.0000 C   0  0  0  0  0  0  0  0  0  0  0  0
    3.7935   -2.2919    0.0000 C   0  0  0  0  0  0  0  0  0  0  0  0
    2.3645    0.1832    0.0000 C   0  0  0  0  0  0  0  0  0  0  0  0
    3.0791   -1.0544    0.0000 C   0  0  0  0  0  0  0  0  0  0  0  0
    1.6500   -0.2294    0.0000 C   0  0  0  0  0  0  0  0  0  0  0  0
    3.0791   -2.7044    0.0000 C   0  0  0  0  0  0  0  0  0  0  0  0
    2.3645   -1.4669    0.0000 C   0  0  0  0  0  0  0  0  0  0  0  0
    1.6500   -1.0544    0.0000 C   0  0  0  0  0  0  0  0  0  0  0  0
    8.0804   -1.4669    0.0000 C   0  0  0  0  0  0  0  0  0  0  0  0
    7.3659   -2.7044    0.0000 C   0  0  0  0  0  0  0  0  0  0  0  0
    8.0804   -2.2919    0.0000 C   0  0  0  0  0  0  0  0  0  0  0  0
    1.6500    1.4207    0.0000 C   0  0  0  0  0  0  0  0  0  0  0  0
    0.0000    0.0000    0.0000 H   0  0  0  0  0  0  0  0  0  0  0  0
    0.0000    0.0000    0.0000 H   0  0  0  0  0  0  0  0  0  0  0  0
    0.0000    0.0000    0.0000 H   0  0  0  0  0  0  0  0  0  0  0  0
    0.0000    0.0000    0.0000 H   0  0  0  0  0  0  0  0  0  0  0  0
    0.0000    0.0000    0.0000 H   0  0  0  0  0  0  0  0  0  0  0  0
    0.0000    0.0000    0.0000 H   0  0  0  0  0  0  0  0  0  0  0  0
    0.0000    0.0000    0.0000 H   0  0  0  0  0  0  0  0  0  0  0  0
    0.0000    0.0000    0.0000 H   0  0  0  0  0  0  0  0  0  0  0  0
    0.0000    0.0000    0.0000 H   0  0  0  0  0  0  0  0  0  0  0  0
    0.0000    0.0000    0.0000 H   0  0  0  0  0  0  0  0  0  0  0  0
    0.0000    0.0000    0.0000 H   0  0  0  0  0  0  0  0  0  0  0  0
    0.0000    0.0000    0.0000 H   0  0  0  0  0  0  0  0  0  0  0  0
    0.0000    0.0000    0.0000 H   0  0  0  0  0  0  0  0  0  0  0  0
    0.0000    0.0000    0.0000 H   0  0  0  0  0  0  0  0  0  0  0  0
    0.0000    0.0000    0.0000 H   0  0  0  0  0  0  0  0  0  0  0  0
    0.0000    0.0000    0.0000 H   0  0  0  0  0  0  0  0  0  0  0  0
    0.0000    0.0000    0.0000 H   0  0  0  0  0  0  0  0  0  0  0  0
    0.0000    0.0000    0.0000 H   0  0  0  0  0  0  0  0  0  0  0  0
    0.0000    0.0000    0.0000 H   0  0  0  0  0  0  0  0  0  0  0  0
    0.0000    0.0000    0.0000 H   0  0  0  0  0  0  0  0  0  0  0  0
    0.0000    0.0000    0.0000 H   0  0  0  0  0  0  0  0  0  0  0  0
    0.0000    0.0000    0.0000 H   0  0  0  0  0  0  0  0  0  0  0  0
    0.0000    0.0000    0.0000 H   0  0  0  0  0  0  0  0  0  0  0  0
    0.0000    0.0000    0.0000 H   0  0  0  0  0  0  0  0  0  0  0  0
    0.0000    0.0000    0.0000 H   0  0  0  0  0  0  0  0  0  0  0  0
    0.0000    0.0000    0.0000 H   0  0  0  0  0  0  0  0  0  0  0  0
    0.0000    0.0000    0.0000 H   0  0  0  0  0  0  0  0  0  0  0  0
    0.0000    0.0000    0.0000 H   0  0  0  0  0  0  0  0  0  0  0  0
    0.0000    0.0000    0.0000 H   0  0  0  0  0  0  0  0  0  0  0  0
  1  2  2  0
  1  3  2  0
  1  8  1  0
  1 20  1  0
  4 24  1  0
  4 27  1  0
  5 25  1  0
  5 29  1  0
  6 30  1  0
  6 39  1  0
  7 33  1  0
  8 23  1  0
  9 23  2  0
  9 26  1  0
 10 25  1  0
 10 26  2  0
 11 28  2  0
 11 36  1  0
 12 28  1  0
 12 37  2  0
 13 14  1  0
 13 15  1  0
 13 16  1  0
 13 17  1  0
 14 18  2  0
 14 19  1  0
 18 21  1  0
 19 22  2  0
 20 21  2  0
 20 22  1  0
 23 24  1  0
 24 25  2  0
 26 28  1  0
 27 30  2  0
 27 31  1  0
 29 33  1  0
 30 32  1  0
 31 34  2  0
 32 35  2  0
 34 35  1  0
 36 38  2  0
 37 38  1  0
  7 40  1  0
  8 41  1  0
 15 42  1  0
 15 43  1  0
 15 44  1  0
 16 45  1  0
 16 46  1  0
 16 47  1  0
 17 48  1  0
 17 49  1  0
 17 50  1  0
 18 51  1  0
 19 52  1  0
 21 53  1  0
 22 54  1  0
 29 55  1  0
 29 56  1  0
 31 57  1  0
 32 58  1  0
 33 59  1  0
 33 60  1  0
 34 61  1  0
 35 62  1  0
 36 63  1  0
 37 64  1  0
 38 65  1  0
 39 66  1  0
 39 67  1  0
 39 68  1  0
M  END
>  <ALOGPS_LOGP>  (1) 
4.18

>  <ALOGPS_LOGS>  (1) 
-4.79

>  <ALOGPS_SOLUBILITY>  (1) 
9.04e-03 g/l

>  <DATABASE_ID>  (1) 
DB00559

>  <DATABASE_NAME>  (1) 
drugbank

>  <DRUGBANK_ID>  (1) 
DB00559

>  <DRUG_GROUPS>  (1) 
approved; investigational

>  <EXACT_MASS>  (1) 
551.183854375

>  <FORMULA>  (1) 
C27H29N5O6S

>  <GENERIC_NAME>  (1) 
Bosentan

>  <INCHI_IDENTIFIER>  (1) 
InChI=1S/C27H29N5O6S/c1-27(2,3)18-10-12-19(13-11-18)39(34,35)32-23-22(38-21-9-6-5-8-20(21)36-4)26(37-17-16-33)31-25(30-23)24-28-14-7-15-29-24/h5-15,33H,16-17H2,1-4H3,(H,30,31,32)

>  <INCHI_KEY>  (1) 
GJPICJJJRGTNOD-UHFFFAOYSA-N

>  <JCHEM_ACCEPTOR_COUNT>  (1) 
9

>  <JCHEM_AVERAGE_POLARIZABILITY>  (1) 
57.885321642011014

>  <JCHEM_BIOAVAILABILITY>  (1) 
1

>  <JCHEM_DONOR_COUNT>  (1) 
2

>  <JCHEM_FORMAL_CHARGE>  (1) 
0

>  <JCHEM_GHOSE_FILTER>  (1) 
0

>  <JCHEM_IUPAC>  (1) 
4-tert-butyl-N-[6-(2-hydroxyethoxy)-5-(2-methoxyphenoxy)-2-(pyrimidin-2-yl)pyrimidin-4-yl]benzene-1-sulfonamide

>  <JCHEM_LOGP>  (1) 
4.941747168000001

>  <JCHEM_MDDR_LIKE_RULE>  (1) 
1

>  <JCHEM_NUMBER_OF_RINGS>  (1) 
4

>  <JCHEM_PHYSIOLOGICAL_CHARGE>  (1) 
-1

>  <JCHEM_PKA>  (1) 
15.098839159321948

>  <JCHEM_PKA_STRONGEST_ACIDIC>  (1) 
5.795967211163311

>  <JCHEM_PKA_STRONGEST_BASIC>  (1) 
-0.42784343298886884

>  <JCHEM_POLAR_SURFACE_AREA>  (1) 
145.65000000000003

>  <JCHEM_REFRACTIVITY>  (1) 
166.65719999999993

>  <JCHEM_ROTATABLE_BOND_COUNT>  (1) 
10

>  <JCHEM_RULE_OF_FIVE>  (1) 
0

>  <JCHEM_TRADITIONAL_IUPAC>  (1) 
bosentan

>  <JCHEM_VEBER_RULE>  (1) 
0

>  <MOLECULAR_WEIGHT>  (1) 
551.614

>  <PRODUCTS>  (1) 
Accel-bosentan; Act Bosentan; Apo-bosentan; Bio-bosentan; Bosentan; Bosentan Tablets; Ipg-bosentan; Mar-bosentan; Mylan-bosentan; Nat-bosentan; PMS-bosentan; Sandoz Bosentan; Stayveer; Teva-bosentan; Tracleer

>  <SALTS>  (1) 
Bosentan monohydrate

>  <SECONDARY_ACCESSION_NUMBERS>  (1) 
APRD00829

>  <SMILES>  (1) 
COC1=CC=CC=C1OC1=C(NS(=O)(=O)C2=CC=C(C=C2)C(C)(C)C)N=C(N=C1OCCO)C1=NC=CC=N1

>  <SYNONYMS>  (1) 
4-(1,1-Dimethylethyl)-N-(6-(2-hydroxyethoxy)-5-(2-methoxyphenoxy)-(2,2'-bipyrimidin)-4-yl) benzenesulfornamide; bosent√°n; bosentan; bosentanum; p-tert-Butyl-N-(6-(2-hydroxyethoxy)-5-(o-methoxyphenoxy)-2-(2-pyrimidinyl)-4-pyrimidinyl)benzenesulfonamide

$$$$
