358
     RDKit          2D

 42 44  0  0  1  0  0  0  0  0999 V2000
    1.9520   -0.5088    0.0000 F   0  0  0  0  0  0  0  0  0  0  0  0
    1.6500   -1.6357    0.0000 F   0  0  0  0  0  0  0  0  0  0  0  0
    2.7770   -1.9378    0.0000 F   0  0  0  0  0  0  0  0  0  0  0  0
    4.4109   -2.0673    0.0000 F   0  0  0  0  0  0  0  0  0  0  0  0
    6.0608   -2.0863    0.0000 F   0  0  0  0  0  0  0  0  0  0  0  0
    5.2263   -2.9018    0.0000 F   0  0  0  0  0  0  0  0  0  0  0  0
    4.5079    1.6643    0.0000 O   0  0  0  0  0  0  0  0  0  0  0  0
    2.3644    1.2518    0.0000 N   0  0  0  0  0  0  0  0  0  0  0  0
    3.7934   -1.2232    0.0000 N   0  0  0  0  0  0  0  0  0  0  0  0
    3.0790    1.6643    0.0000 C   0  0  0  0  0  0  0  0  0  0  0  0
    3.0790    2.4893    0.0000 C   0  0  0  0  0  0  0  0  0  0  0  0
    3.7934    1.2518    0.0000 C   0  0  0  0  0  0  0  0  0  0  0  0
    2.3644    2.9018    0.0000 C   0  0  0  0  0  0  0  0  0  0  0  0
    1.6500    2.4893    0.0000 C   0  0  0  0  0  0  0  0  0  0  0  0
    1.6500    1.6643    0.0000 C   0  0  0  0  0  0  0  0  0  0  0  0
    3.7934    0.4268    0.0000 C   0  0  0  0  0  0  0  0  0  0  0  0
    4.5079    0.0143    0.0000 C   0  0  0  0  0  0  0  0  0  0  0  0
    3.0790    0.0143    0.0000 C   0  0  0  0  0  0  0  0  0  0  0  0
    4.5079   -0.8107    0.0000 C   0  0  0  0  0  0  0  0  0  0  0  0
    3.0790   -0.8107    0.0000 C   0  0  0  0  0  0  0  0  0  0  0  0
    5.2453    0.4553    0.0000 C   0  0  0  0  0  0  0  0  0  0  0  0
    5.2453   -1.2519    0.0000 C   0  0  0  0  0  0  0  0  0  0  0  0
    5.9929    0.0314    0.0000 C   0  0  0  0  0  0  0  0  0  0  0  0
    5.9929   -0.8280    0.0000 C   0  0  0  0  0  0  0  0  0  0  0  0
    2.3644   -1.2232    0.0000 C   0  0  0  0  0  0  0  0  0  0  0  0
    5.2359   -2.0768    0.0000 C   0  0  0  0  0  0  0  0  0  0  0  0
    0.0000    0.0000    0.0000 H   0  0  0  0  0  0  0  0  0  0  0  0
    0.0000    0.0000    0.0000 H   0  0  0  0  0  0  0  0  0  0  0  0
    0.0000    0.0000    0.0000 H   0  0  0  0  0  0  0  0  0  0  0  0
    0.0000    0.0000    0.0000 H   0  0  0  0  0  0  0  0  0  0  0  0
    0.0000    0.0000    0.0000 H   0  0  0  0  0  0  0  0  0  0  0  0
    0.0000    0.0000    0.0000 H   0  0  0  0  0  0  0  0  0  0  0  0
    0.0000    0.0000    0.0000 H   0  0  0  0  0  0  0  0  0  0  0  0
    0.0000    0.0000    0.0000 H   0  0  0  0  0  0  0  0  0  0  0  0
    0.0000    0.0000    0.0000 H   0  0  0  0  0  0  0  0  0  0  0  0
    0.0000    0.0000    0.0000 H   0  0  0  0  0  0  0  0  0  0  0  0
    0.0000    0.0000    0.0000 H   0  0  0  0  0  0  0  0  0  0  0  0
    0.0000    0.0000    0.0000 H   0  0  0  0  0  0  0  0  0  0  0  0
    0.0000    0.0000    0.0000 H   0  0  0  0  0  0  0  0  0  0  0  0
    0.0000    0.0000    0.0000 H   0  0  0  0  0  0  0  0  0  0  0  0
    0.0000    0.0000    0.0000 H   0  0  0  0  0  0  0  0  0  0  0  0
    0.0000    0.0000    0.0000 H   0  0  0  0  0  0  0  0  0  0  0  0
  1 25  1  0
  2 25  1  0
  3 25  1  0
  4 26  1  0
  5 26  1  0
  6 26  1  0
  7 12  1  0
  8 10  1  0
  8 15  1  0
  9 19  2  0
  9 20  1  0
 10 11  1  0
 10 12  1  0
 11 13  1  0
 12 16  1  0
 13 14  1  0
 14 15  1  0
 16 17  2  0
 16 18  1  0
 17 19  1  0
 17 21  1  0
 18 20  2  0
 19 22  1  0
 20 25  1  0
 21 23  2  0
 22 24  2  0
 22 26  1  0
 23 24  1  0
  7 27  1  0
  8 28  1  0
 10 29  1  0
 11 30  1  0
 11 31  1  0
 12 32  1  0
 13 33  1  0
 13 34  1  0
 14 35  1  0
 14 36  1  0
 15 37  1  0
 15 38  1  0
 18 39  1  0
 21 40  1  0
 23 41  1  0
 24 42  1  0
M  END
>  <ALOGPS_LOGP>  (1) 
3.10

>  <ALOGPS_LOGS>  (1) 
-4.00

>  <ALOGPS_SOLUBILITY>  (1) 
3.80e-02 g/l

>  <DATABASE_ID>  (1) 
DB00358

>  <DATABASE_NAME>  (1) 
drugbank

>  <DRUGBANK_ID>  (1) 
DB00358

>  <DRUG_GROUPS>  (1) 
approved

>  <EXACT_MASS>  (1) 
378.116682374

>  <FORMULA>  (1) 
C17H16F6N2O

>  <GENERIC_NAME>  (1) 
Mefloquine

>  <INCHI_IDENTIFIER>  (1) 
InChI=1S/C17H16F6N2O/c18-16(19,20)11-5-3-4-9-10(15(26)12-6-1-2-7-24-12)8-13(17(21,22)23)25-14(9)11/h3-5,8,12,15,24,26H,1-2,6-7H2

>  <INCHI_KEY>  (1) 
XEEQGYMUWCZPDN-UHFFFAOYSA-N

>  <INTERNATIONAL_BRANDS>  (1) 
Eloquine; Facital; Falcital; Lariam; Larimef; Mefax; Mefliam; Meflon; Mefloquina; Mefque; Mephaquin; Mephaquin Lactab; Mequin; Mqf; Suton; Tropicur

>  <JCHEM_ACCEPTOR_COUNT>  (1) 
3

>  <JCHEM_AVERAGE_POLARIZABILITY>  (1) 
31.733860994207166

>  <JCHEM_BIOAVAILABILITY>  (1) 
1

>  <JCHEM_DONOR_COUNT>  (1) 
2

>  <JCHEM_FORMAL_CHARGE>  (1) 
0

>  <JCHEM_GHOSE_FILTER>  (1) 
1

>  <JCHEM_IUPAC>  (1) 
[2,8-bis(trifluoromethyl)quinolin-4-yl](piperidin-2-yl)methanol

>  <JCHEM_LOGP>  (1) 
4.110594849666667

>  <JCHEM_MDDR_LIKE_RULE>  (1) 
0

>  <JCHEM_NUMBER_OF_RINGS>  (1) 
3

>  <JCHEM_PHYSIOLOGICAL_CHARGE>  (1) 
1

>  <JCHEM_PKA_STRONGEST_ACIDIC>  (1) 
13.78584066742593

>  <JCHEM_PKA_STRONGEST_BASIC>  (1) 
9.462172068313652

>  <JCHEM_POLAR_SURFACE_AREA>  (1) 
45.15

>  <JCHEM_REFRACTIVITY>  (1) 
82.57740000000001

>  <JCHEM_ROTATABLE_BOND_COUNT>  (1) 
4

>  <JCHEM_RULE_OF_FIVE>  (1) 
1

>  <JCHEM_TRADITIONAL_IUPAC>  (1) 
mefloquine

>  <JCHEM_VEBER_RULE>  (1) 
0

>  <MOLECULAR_WEIGHT>  (1) 
378.3122

>  <PRODUCTS>  (1) 
Lariam Tab 250mg; Mefloquine; Mefloquine Hydrochloride

>  <SALTS>  (1) 
Mefloquine Hydrochloride

>  <SECONDARY_ACCESSION_NUMBERS>  (1) 
APRD00300

>  <SMILES>  (1) 
OC(C1CCCCN1)C1=CC(=NC2=C1C=CC=C2C(F)(F)F)C(F)(F)F

>  <SYNONYMS>  (1) 
[(R*,S*)-2,8-bis(trifluoromethyl)quinolin-4-yl]-(2-piperidyl)methanol; Mefloquin; Mefloquina; MÃ©floquine; Mefloquine; Mefloquinum

$$$$
