452
     RDKit          2D

 88 91  0  0  1  0  0  0  0  0999 V2000
    6.6349   -0.3607    0.0000 O   0  0  0  0  0  0  0  0  0  0  0  0
    5.2059   -1.1857    0.0000 O   0  0  0  0  0  0  0  0  0  0  0  0
    8.1030   -0.2837    0.0000 O   0  0  0  0  0  0  0  0  0  0  0  0
    8.5781    1.7975    0.0000 O   0  0  0  0  0  0  0  0  0  0  0  0
    8.0638   -1.1857    0.0000 O   0  0  0  0  0  0  0  0  0  0  0  0
    3.9683   -1.9003    0.0000 O   0  0  0  0  0  0  0  0  0  0  0  0
    9.8836    1.2163    0.0000 O   0  0  0  0  0  0  0  0  0  0  0  0
    6.8225    1.4244    0.0000 O   0  0  0  0  0  0  0  0  0  0  0  0
    2.7309    0.2433    0.0000 O   0  0  0  0  0  0  0  0  0  0  0  0
    1.9058   -1.1857    0.0000 O   0  0  0  0  0  0  0  0  0  0  0  0
   10.8902    3.4774    0.0000 O   0  0  0  0  0  0  0  0  0  0  0  0
    9.8111   -0.5106    0.0000 O   0  0  0  0  0  0  0  0  0  0  0  0
   11.8601    2.1425    0.0000 O   0  0  0  0  0  0  0  0  0  0  0  0
    5.5078   -3.1377    0.0000 N   0  0  0  0  0  0  0  0  0  0  0  0
    8.0638   -2.8358    0.0000 N   0  0  0  0  0  0  0  0  0  0  0  0
    4.3808    0.2432    0.0000 N   0  0  0  0  0  0  0  0  0  0  0  0
    9.2493    3.3049    0.0000 N   0  0  0  0  0  0  0  0  0  0  0  0
    3.1434   -3.3292    0.0000 N   0  0  0  0  0  0  0  0  0  0  0  0
   12.0095    0.7213    0.0000 N   0  0  0  0  0  0  0  0  0  0  0  0
    6.6349   -1.1857    0.0000 C   0  0  0  0  0  0  0  0  0  0  0  0
    5.9203   -1.5982    0.0000 C   0  0  0  0  0  0  0  0  0  0  0  0
    5.9203   -2.4232    0.0000 C   0  0  0  0  0  0  0  0  0  0  0  0
    7.3493   -1.5982    0.0000 C   0  0  0  0  0  0  0  0  0  0  0  0
    7.3493   -2.4232    0.0000 C   0  0  0  0  0  0  0  0  0  0  0  0
    6.6349   -2.8358    0.0000 C   0  0  0  0  0  0  0  0  0  0  0  0
    7.3493    0.0518    0.0000 C   0  0  0  0  0  0  0  0  0  0  0  0
    8.2426    1.0438    0.0000 C   0  0  0  0  0  0  0  0  0  0  0  0
    7.4356    0.8723    0.0000 C   0  0  0  0  0  0  0  0  0  0  0  0
    8.6551    0.3293    0.0000 C   0  0  0  0  0  0  0  0  0  0  0  0
    4.3808   -1.1857    0.0000 C   0  0  0  0  0  0  0  0  0  0  0  0
    3.9684   -0.4712    0.0000 C   0  0  0  0  0  0  0  0  0  0  0  0
    3.1433   -0.4712    0.0000 C   0  0  0  0  0  0  0  0  0  0  0  0
    9.3986    1.8838    0.0000 C   0  0  0  0  0  0  0  0  0  0  0  0
    2.7308   -1.1857    0.0000 C   0  0  0  0  0  0  0  0  0  0  0  0
    3.1433   -1.9002    0.0000 C   0  0  0  0  0  0  0  0  0  0  0  0
    9.7341    2.6375    0.0000 C   0  0  0  0  0  0  0  0  0  0  0  0
   10.5547    2.7237    0.0000 C   0  0  0  0  0  0  0  0  0  0  0  0
    9.4756    0.2431    0.0000 C   0  0  0  0  0  0  0  0  0  0  0  0
   11.0397    2.0563    0.0000 C   0  0  0  0  0  0  0  0  0  0  0  0
   10.7040    1.3025    0.0000 C   0  0  0  0  0  0  0  0  0  0  0  0
    2.7308   -2.6147    0.0000 C   0  0  0  0  0  0  0  0  0  0  0  0
   11.1890    0.6351    0.0000 C   0  0  0  0  0  0  0  0  0  0  0  0
    0.0000    0.0000    0.0000 H   0  0  0  0  0  0  0  0  0  0  0  0
    0.0000    0.0000    0.0000 H   0  0  0  0  0  0  0  0  0  0  0  0
    0.0000    0.0000    0.0000 H   0  0  0  0  0  0  0  0  0  0  0  0
    0.0000    0.0000    0.0000 H   0  0  0  0  0  0  0  0  0  0  0  0
    0.0000    0.0000    0.0000 H   0  0  0  0  0  0  0  0  0  0  0  0
    0.0000    0.0000    0.0000 H   0  0  0  0  0  0  0  0  0  0  0  0
    0.0000    0.0000    0.0000 H   0  0  0  0  0  0  0  0  0  0  0  0
    0.0000    0.0000    0.0000 H   0  0  0  0  0  0  0  0  0  0  0  0
    0.0000    0.0000    0.0000 H   0  0  0  0  0  0  0  0  0  0  0  0
    0.0000    0.0000    0.0000 H   0  0  0  0  0  0  0  0  0  0  0  0
    0.0000    0.0000    0.0000 H   0  0  0  0  0  0  0  0  0  0  0  0
    0.0000    0.0000    0.0000 H   0  0  0  0  0  0  0  0  0  0  0  0
    0.0000    0.0000    0.0000 H   0  0  0  0  0  0  0  0  0  0  0  0
    0.0000    0.0000    0.0000 H   0  0  0  0  0  0  0  0  0  0  0  0
    0.0000    0.0000    0.0000 H   0  0  0  0  0  0  0  0  0  0  0  0
    0.0000    0.0000    0.0000 H   0  0  0  0  0  0  0  0  0  0  0  0
    0.0000    0.0000    0.0000 H   0  0  0  0  0  0  0  0  0  0  0  0
    0.0000    0.0000    0.0000 H   0  0  0  0  0  0  0  0  0  0  0  0
    0.0000    0.0000    0.0000 H   0  0  0  0  0  0  0  0  0  0  0  0
    0.0000    0.0000    0.0000 H   0  0  0  0  0  0  0  0  0  0  0  0
    0.0000    0.0000    0.0000 H   0  0  0  0  0  0  0  0  0  0  0  0
    0.0000    0.0000    0.0000 H   0  0  0  0  0  0  0  0  0  0  0  0
    0.0000    0.0000    0.0000 H   0  0  0  0  0  0  0  0  0  0  0  0
    0.0000    0.0000    0.0000 H   0  0  0  0  0  0  0  0  0  0  0  0
    0.0000    0.0000    0.0000 H   0  0  0  0  0  0  0  0  0  0  0  0
    0.0000    0.0000    0.0000 H   0  0  0  0  0  0  0  0  0  0  0  0
    0.0000    0.0000    0.0000 H   0  0  0  0  0  0  0  0  0  0  0  0
    0.0000    0.0000    0.0000 H   0  0  0  0  0  0  0  0  0  0  0  0
    0.0000    0.0000    0.0000 H   0  0  0  0  0  0  0  0  0  0  0  0
    0.0000    0.0000    0.0000 H   0  0  0  0  0  0  0  0  0  0  0  0
    0.0000    0.0000    0.0000 H   0  0  0  0  0  0  0  0  0  0  0  0
    0.0000    0.0000    0.0000 H   0  0  0  0  0  0  0  0  0  0  0  0
    0.0000    0.0000    0.0000 H   0  0  0  0  0  0  0  0  0  0  0  0
    0.0000    0.0000    0.0000 H   0  0  0  0  0  0  0  0  0  0  0  0
    0.0000    0.0000    0.0000 H   0  0  0  0  0  0  0  0  0  0  0  0
    0.0000    0.0000    0.0000 H   0  0  0  0  0  0  0  0  0  0  0  0
    0.0000    0.0000    0.0000 H   0  0  0  0  0  0  0  0  0  0  0  0
    0.0000    0.0000    0.0000 H   0  0  0  0  0  0  0  0  0  0  0  0
    0.0000    0.0000    0.0000 H   0  0  0  0  0  0  0  0  0  0  0  0
    0.0000    0.0000    0.0000 H   0  0  0  0  0  0  0  0  0  0  0  0
    0.0000    0.0000    0.0000 H   0  0  0  0  0  0  0  0  0  0  0  0
    0.0000    0.0000    0.0000 H   0  0  0  0  0  0  0  0  0  0  0  0
    0.0000    0.0000    0.0000 H   0  0  0  0  0  0  0  0  0  0  0  0
    0.0000    0.0000    0.0000 H   0  0  0  0  0  0  0  0  0  0  0  0
    0.0000    0.0000    0.0000 H   0  0  0  0  0  0  0  0  0  0  0  0
    0.0000    0.0000    0.0000 H   0  0  0  0  0  0  0  0  0  0  0  0
 20  1  1  6
 26  1  1  1
 21  2  1  1
 30  2  1  6
  3 26  1  0
  3 29  1  0
 27  4  1  6
 33  4  1  6
 23  5  1  6
  6 30  1  0
  6 35  1  0
  7 33  1  0
  7 40  1  0
 28  8  1  6
 32  9  1  6
 34 10  1  1
 37 11  1  6
 12 38  1  0
 39 13  1  1
 22 14  1  6
 24 15  1  1
 31 16  1  1
 36 17  1  6
 18 41  1  0
 19 42  1  0
 20 21  1  0
 20 23  1  0
 21 22  1  0
 22 25  1  0
 23 24  1  0
 24 25  1  0
 26 28  1  0
 27 28  1  0
 27 29  1  0
 29 38  1  6
 30 31  1  0
 31 32  1  0
 32 34  1  0
 33 36  1  0
 34 35  1  0
 35 41  1  6
 36 37  1  0
 37 39  1  0
 39 40  1  0
 40 42  1  6
  5 43  1  0
  8 44  1  0
  9 45  1  0
 10 46  1  0
 11 47  1  0
 12 48  1  0
 13 49  1  0
 14 50  1  0
 14 51  1  0
 15 52  1  0
 15 53  1  0
 16 54  1  0
 16 55  1  0
 17 56  1  0
 17 57  1  0
 18 58  1  0
 18 59  1  0
 19 60  1  0
 19 61  1  0
 20 62  1  0
 21 63  1  0
 22 64  1  0
 23 65  1  0
 24 66  1  0
 25 67  1  0
 25 68  1  0
 26 69  1  0
 27 70  1  0
 28 71  1  0
 29 72  1  0
 30 73  1  0
 31 74  1  0
 32 75  1  0
 33 76  1  0
 34 77  1  0
 35 78  1  0
 36 79  1  0
 37 80  1  0
 38 81  1  0
 38 82  1  0
 39 83  1  0
 40 84  1  0
 41 85  1  0
 41 86  1  0
 42 87  1  0
 42 88  1  0
M  END
>  <ALOGPS_LOGP>  (1) 
-2.81

>  <ALOGPS_LOGS>  (1) 
-0.98

>  <ALOGPS_SOLUBILITY>  (1) 
6.47e+01 g/l

>  <DATABASE_ID>  (1) 
DB00452

>  <DATABASE_NAME>  (1) 
drugbank

>  <DRUGBANK_ID>  (1) 
DB00452

>  <DRUG_GROUPS>  (1) 
approved

>  <EXACT_MASS>  (1) 
614.312285588

>  <FORMULA>  (1) 
C23H46N6O13

>  <GENERIC_NAME>  (1) 
Framycetin

>  <INCHI_IDENTIFIER>  (1) 
InChI=1S/C23H46N6O13/c24-2-7-13(32)15(34)10(28)21(37-7)40-18-6(27)1-5(26)12(31)20(18)42-23-17(36)19(9(4-30)39-23)41-22-11(29)16(35)14(33)8(3-25)38-22/h5-23,30-36H,1-4,24-29H2/t5-,6+,7-,8+,9-,10-,11-,12+,13-,14-,15-,16-,17-,18-,19-,20-,21-,22-,23+/m1/s1

>  <INCHI_KEY>  (1) 
PGBHMTALBVVCIT-VCIWKGPPSA-N

>  <INTERNATIONAL_BRANDS>  (1) 
Isofra; Izofra; Leukase N; Pola; Sofra-Tulle; Soframycin; Soframycine

>  <JCHEM_ACCEPTOR_COUNT>  (1) 
19

>  <JCHEM_AVERAGE_POLARIZABILITY>  (1) 
60.86944937466069

>  <JCHEM_BIOAVAILABILITY>  (1) 
0

>  <JCHEM_DONOR_COUNT>  (1) 
13

>  <JCHEM_FORMAL_CHARGE>  (1) 
0

>  <JCHEM_GHOSE_FILTER>  (1) 
0

>  <JCHEM_IUPAC>  (1) 
(2S,3S,4R,5R,6R)-5-amino-2-(aminomethyl)-6-{[(2R,3S,4R,5S)-5-{[(1R,2R,3S,5R,6S)-3,5-diamino-2-{[(2R,3R,4R,5S,6R)-3-amino-6-(aminomethyl)-4,5-dihydroxyoxan-2-yl]oxy}-6-hydroxycyclohexyl]oxy}-4-hydroxy-2-(hydroxymethyl)oxolan-3-yl]oxy}oxane-3,4-diol

>  <JCHEM_LOGP>  (1) 
-8.415177746000001

>  <JCHEM_MDDR_LIKE_RULE>  (1) 
1

>  <JCHEM_NUMBER_OF_RINGS>  (1) 
4

>  <JCHEM_PHYSIOLOGICAL_CHARGE>  (1) 
6

>  <JCHEM_PKA>  (1) 
13.193966104089196

>  <JCHEM_PKA_STRONGEST_ACIDIC>  (1) 
12.29108347065852

>  <JCHEM_PKA_STRONGEST_BASIC>  (1) 
9.968574453874519

>  <JCHEM_POLAR_SURFACE_AREA>  (1) 
353.10999999999996

>  <JCHEM_REFRACTIVITY>  (1) 
135.9002999999999

>  <JCHEM_ROTATABLE_BOND_COUNT>  (1) 
9

>  <JCHEM_RULE_OF_FIVE>  (1) 
0

>  <JCHEM_TRADITIONAL_IUPAC>  (1) 
neomycin

>  <JCHEM_VEBER_RULE>  (1) 
0

>  <MOLECULAR_WEIGHT>  (1) 
614.6437

>  <PRODUCTS>  (1) 
Proctol Ointment; Proctol Suppositories; Proctosedyl Ointment; Proctosedyl Sup; Proctosedyl Suppositories; Ratio-proctosone; Sandoz Opticort; Sandoz Proctomyxin HC; Sandoz Proctomyxin HC Suppositories; Sofra Tulle 10 X 10cm; Sofra Tulle Strip (10 X 30cm); Sofra-tulle Dressing 1%; Sofra-tulle Strip 1%; Sofracort Ear/eye Ointment; Sofracort Sterile Ear/eye Drops; Sofracort Sterile Ear/eye Ointment; Soframycin Eye Drops 0.5%; Soframycin Eye Drops 5mg/ml; Soframycin Eye Ont 0.5%; Soframycin Nasal Spray; Soframycin Ointment; Soframycin Skin Ointment; Soframycin Sterile Eye Ointment 0.5%

>  <SALTS>  (1) 
Framycetin sulfate

>  <SECONDARY_ACCESSION_NUMBERS>  (1) 
APRD00618

>  <SMILES>  (1) 
NC[C@@H]1O[C@H](O[C@@H]2[C@@H](CO)O[C@@H](O[C@@H]3[C@@H](O)[C@H](N)C[C@H](N)[C@H]3O[C@H]3O[C@H](CN)[C@@H](O)[C@H](O)[C@H]3N)[C@@H]2O)[C@H](N)[C@@H](O)[C@@H]1O

>  <SYNONYMS>  (1) 
Fradiomycin B; Framicetina; Framycetin; Framyc√©tine; Framycetinum; Neomycin B

$$$$
