388
     RDKit          2D

 25 25  0  0  1  0  0  0  0  0999 V2000
    2.3645    1.0808    0.0000 O   0  0  0  0  0  0  0  0  0  0  0  0
    1.6500   -1.8068    0.0000 O   0  0  0  0  0  0  0  0  0  0  0  0
    3.7935    1.9058    0.0000 N   0  0  0  0  0  0  0  0  0  0  0  0
    3.0791    0.6683    0.0000 C   0  0  0  0  0  0  0  0  0  0  0  0
    3.7935    1.0808    0.0000 C   0  0  0  0  0  0  0  0  0  0  0  0
    3.0791   -0.1568    0.0000 C   0  0  0  0  0  0  0  0  0  0  0  0
    2.3645   -0.5693    0.0000 C   0  0  0  0  0  0  0  0  0  0  0  0
    3.7935   -0.5693    0.0000 C   0  0  0  0  0  0  0  0  0  0  0  0
    2.3645   -1.3943    0.0000 C   0  0  0  0  0  0  0  0  0  0  0  0
    3.7935   -1.3943    0.0000 C   0  0  0  0  0  0  0  0  0  0  0  0
    3.0791   -1.8068    0.0000 C   0  0  0  0  0  0  0  0  0  0  0  0
    4.5080    2.3183    0.0000 C   0  0  0  0  0  0  0  0  0  0  0  0
    0.0000    0.0000    0.0000 H   0  0  0  0  0  0  0  0  0  0  0  0
    0.0000    0.0000    0.0000 H   0  0  0  0  0  0  0  0  0  0  0  0
    0.0000    0.0000    0.0000 H   0  0  0  0  0  0  0  0  0  0  0  0
    0.0000    0.0000    0.0000 H   0  0  0  0  0  0  0  0  0  0  0  0
    0.0000    0.0000    0.0000 H   0  0  0  0  0  0  0  0  0  0  0  0
    0.0000    0.0000    0.0000 H   0  0  0  0  0  0  0  0  0  0  0  0
    0.0000    0.0000    0.0000 H   0  0  0  0  0  0  0  0  0  0  0  0
    0.0000    0.0000    0.0000 H   0  0  0  0  0  0  0  0  0  0  0  0
    0.0000    0.0000    0.0000 H   0  0  0  0  0  0  0  0  0  0  0  0
    0.0000    0.0000    0.0000 H   0  0  0  0  0  0  0  0  0  0  0  0
    0.0000    0.0000    0.0000 H   0  0  0  0  0  0  0  0  0  0  0  0
    0.0000    0.0000    0.0000 H   0  0  0  0  0  0  0  0  0  0  0  0
    0.0000    0.0000    0.0000 H   0  0  0  0  0  0  0  0  0  0  0  0
  4  1  1  1
  2  9  1  0
  3  5  1  0
  3 12  1  0
  4  5  1  0
  4  6  1  0
  6  7  2  0
  6  8  1  0
  7  9  1  0
  8 10  2  0
  9 11  2  0
 10 11  1  0
  1 13  1  0
  2 14  1  0
  3 15  1  0
  4 16  1  0
  5 17  1  0
  5 18  1  0
  7 19  1  0
  8 20  1  0
 10 21  1  0
 11 22  1  0
 12 23  1  0
 12 24  1  0
 12 25  1  0
M  END
>  <ALOGPS_LOGP>  (1) 
-0.69

>  <ALOGPS_LOGS>  (1) 
-0.88

>  <ALOGPS_SOLUBILITY>  (1) 
2.20e+01 g/l

>  <DATABASE_ID>  (1) 
DB00388

>  <DATABASE_NAME>  (1) 
drugbank

>  <DRUGBANK_ID>  (1) 
DB00388

>  <DRUG_GROUPS>  (1) 
approved

>  <EXACT_MASS>  (1) 
167.094628665

>  <FORMULA>  (1) 
C9H13NO2

>  <GENERIC_NAME>  (1) 
Phenylephrine

>  <INCHI_IDENTIFIER>  (1) 
InChI=1S/C9H13NO2/c1-10-6-9(12)7-3-2-4-8(11)5-7/h2-5,9-12H,6H2,1H3/t9-/m0/s1

>  <INCHI_KEY>  (1) 
SONNWYBIRXJNDC-VIFPVBQESA-N

>  <INTERNATIONAL_BRANDS>  (1) 
AK-Dilate; AK-Nefrin; Alconefrin; Mesatone; Minims Phenylephrine; Mydfrin; Neo-Synephrine; Neofrin; Ocugestrin; Phenoptic; Prefrin; Rhinall; Spersaphrine; Visadron

>  <JCHEM_ACCEPTOR_COUNT>  (1) 
3

>  <JCHEM_AVERAGE_POLARIZABILITY>  (1) 
18.19963475509828

>  <JCHEM_BIOAVAILABILITY>  (1) 
1

>  <JCHEM_DONOR_COUNT>  (1) 
3

>  <JCHEM_FORMAL_CHARGE>  (1) 
0

>  <JCHEM_GHOSE_FILTER>  (1) 
1

>  <JCHEM_IUPAC>  (1) 
3-[(1R)-1-hydroxy-2-(methylamino)ethyl]phenol

>  <JCHEM_LOGP>  (1) 
-0.07016072310749853

>  <JCHEM_MDDR_LIKE_RULE>  (1) 
0

>  <JCHEM_NUMBER_OF_RINGS>  (1) 
1

>  <JCHEM_PHYSIOLOGICAL_CHARGE>  (1) 
1

>  <JCHEM_PKA>  (1) 
14.239851398869074

>  <JCHEM_PKA_STRONGEST_ACIDIC>  (1) 
9.067801130196546

>  <JCHEM_PKA_STRONGEST_BASIC>  (1) 
9.687080513614072

>  <JCHEM_POLAR_SURFACE_AREA>  (1) 
52.49

>  <JCHEM_REFRACTIVITY>  (1) 
47.2494

>  <JCHEM_ROTATABLE_BOND_COUNT>  (1) 
3

>  <JCHEM_RULE_OF_FIVE>  (1) 
1

>  <JCHEM_TRADITIONAL_IUPAC>  (1) 
phenylephrine

>  <JCHEM_VEBER_RULE>  (1) 
0

>  <MOLECULAR_WEIGHT>  (1) 
167.205

>  <PRODUCTS>  (1) 
4 Way Fast Acting; 7 Select Cold and Allergy Childrens; 7 Select Day Time Relief; 7 Select Hemorrhoidal Original Strength; 7 Select Nasal Decongestant PE; 7 Select Night Time Severe Cold Cough and Flu; 7 Select Night Time severe cold, cough and flu; ACETAMINOPHEN DEXTROMETHORPHAN HYDROBROMIDE and PHENYLEPHRINE HYDROCHLORIDE; ACETAMINOPHEN, DEXTROMETHORPHAN HYDROBROMIDE, and PHENYLEPHRINE HYDROCHLORIDE; AP-Hist DM; ATOPALM Hemorrhoidal; ATOPALM Hemorrhoidal Pain Relieving; Acetaminophen Dextromethorphan HBr Doxylamine succinate Phenylephrine HCl; Acetaminophen Dextromethorphan Hydrobromide Doxylamine Succinate Phenylephrine Hydrochloride; Acetaminophen Dextromethorphan Hydrobromide Phenylephrine Hydrochloride; Acetaminophen Phenylephrine HCl; Acetaminophen Sinus Congestion and Pain A P J Coated; Acetaminophen Sinus Congestion and Pain Daytime; Acetaminophen, Chlorpheniramine Maleate, Dextromethorphan Hydrobromide, Phenylephrine Hydrochloride; Acetaminophen, Chlorpheniramine Maleate, Phenylephrine Hydrochloride; Acetaminophen, Dextromethorphan Hydrobromide, Guaifenesin, Phenylephrine Hydrochloride; Acetaminophen, Dextromethorphan Hydrobromide, Phenylephrine Hydrochloride; Acetaminophen, Diphenhydramine Hydrochloride, Phenylephrine Hydrochloride; Acetaminophen, Diphenhydramine Hyhrochloride, Phenylephrine Hydrochloride; Acetaminophen, Guaifenesin, Phenylephrine Hydrochloride; Acetaminophen, Phenylephrine Hydrochloride; Acetaminophen,Dextromethorphan,Phenylephrine; Acti PE; Actidom Dmx; Actifed PE; Actifed PE Plus; Adult CF Cough; Adult Cold, Flu and Sore Throat; Adult Severe Congestion and Cough; Adult Tussin CF Multi-Symptom Cold; Adult Tussin Cough and Cold CF; Advil Allergy and Congestion Relief; Advil Cold & Sinus PE; Advil Congestion Relief; Advil Sinus Congestion and Pain; Advil Sinus Congestion and Pain Relief; Airacof; Ala-hist Ac; Ala-hist PE; Alahist CF; Alahist DM; Alahist LQ; Alahistdm DM; Alka Seltzer Plus Cold; Alka-Seltzer Plus; Alka-Seltzer Plus Cold Formula (Cherry Burst); Alka-Seltzer Plus Cold Formula (Orange Zest); Alka-Seltzer Plus Cold Medicine Sparkling Original; Alka-Seltzer Plus Cold Orange Zest; Alka-Seltzer Plus Cold Sparkling Original; Alka-Seltzer Plus Cold and Cough; Alka-Seltzer Plus Cold and Cough Formula; Alka-Seltzer Plus Day Cold and Flu; Alka-Seltzer Plus Day Non Drowsy Cold Medicine Citrus; Alka-Seltzer Plus Day Non-Drowsy Cold and Flu Formula; Alka-Seltzer Plus Day Severe Cold Plus Flu; Alka-Seltzer Plus Day Severe Cold, Cough And Flu; Alka-Seltzer Plus Day and Night Cold and Flu Formula; Alka-Seltzer Plus Day and Night Multi-Symptom Cold and Flu Formula; Alka-Seltzer Plus Day and Night Severe Cold and Flu; Alka-Seltzer Plus Fast Crystals Packs Cold Formula; Alka-Seltzer Plus Fast Packs Cold and Flu Formula; Alka-Seltzer Plus Flu Formula; Alka-Seltzer Plus Maximum Strength Cold and Cough; Alka-Seltzer Plus Maximum Strength Cold and Cough Liquid Gels with Cool Menthol Flavor Liquid Gels; Alka-Seltzer Plus Maximum Strength Day Cold and Flu; Alka-Seltzer Plus Maximum Strength Day and Night Cold and Flu; Alka-Seltzer Plus Maximum Strength Night Cold and Flu; Alka-Seltzer Plus Maximum Strength Severe Sinus Congestion and Cough Day and Night; Alka-Seltzer Plus Maximum Strength Severe Sinus, Allergy and Cough; Alka-Seltzer Plus Multi-Smptom Cold and Flu Night; Alka-Seltzer Plus Multi-Symptom Cold Day and Night; Alka-Seltzer Plus Multi-Symptom Cold Night; Alka-Seltzer Plus Multi-Symptom Cold and Cough; Alka-Seltzer Plus Multi-Symptom Cold and Flu Day Liquid Gels; Alka-Seltzer Plus Multi-Symptom Cold and Flu Day and Night Liquid Gels; Alka-Seltzer Plus Night Cold Formula (Lemon); Alka-Seltzer Plus Night Cold Medicine; Alka-Seltzer Plus Night Cold and Flu Formula; Alka-Seltzer Plus Night Severe Cold and Flu; Alka-Seltzer Plus Night Severe Cold, Cough And Flu; Alka-Seltzer Plus Severe Allergy Sinus Congestion And Headache Formula; Alka-Seltzer Plus Severe Cold And Flu Formula; Alka-Seltzer Plus Severe Cold and Flu; Alka-Seltzer Plus Severe Cold, Mucus and Congestion; Alka-Seltzer Plus Severe Cough Mucus and Congestion Day and Night; Alka-Seltzer Plus Severe Cough Mucus and Congestion Liquid Gels; Alka-Seltzer Plus Severe Sinus Cold and Cough Liquid Gels; Alka-Seltzer Plus Severe Sinus Congestion and Cough; Alka-Seltzer Plus Severe Sinus Congestion and Cough Day and Night; Alka-Seltzer Plus Severe Sinus Congestion and Cough Liquid Gels; Alka-Seltzer Plus Severe Sinus Congestion and Cough Liquid Gels Day; Alka-Seltzer Plus Severe Sinus Congestion and Cough Liquid Gels Night; Alka-Seltzer Plus Severe Sinus Congestion, Allergy and Cough; Alka-Seltzer Plus Severe Sinus and Cold; Allerest PE; Allerfed; Allerfed Cold and Allergy; Allerfed Cold and Allergy PE; Allergie Extra Fort; Allergy; Allergy + Sinus Relief Extra Strength Tablets PE; Allergy D; Allergy Multi Symptom; Allergy Multi-Symptom; Allergy Pain Relief; Allergy Plus Severe Sinus Headache; Allergy Plus Sinus Headache; Allergy Plus Sinus Relief; Allergy Relief; Allergy Relief Multi-Symptom; Allergy Relief Multisymptom; Allergy Relief Plus Sinus Headache; Allergy Sinus Medication; Allergy Sinus PE Pain Relief; Allergy and Cold; Allergy and Cold PE; Allergy and Cold Relief; Allergy and Cough; Allergy and Pain Relief Multi-Symptom; Allergy and Sinus Headache; Allergy and Sinus Headache Relief Complete; Allergy and Sinus PE Maximum Strength; Allergy and Sinus Relief Extra Strength; Allergy and Stuffy Nose; Alticotron; Altidec A; Altidesp; Altidome DMX; Altilan CL; Altipres; Altipres Pediatric; Altipres-B; Anu-Med; Aphedrid Cold and Allergy; Apj Hemorrhoidal; Apz Hemorrhoidal Suppositories; Aquanaz; Aspirin Free Cold Head Congestion Day Time; Assured Childrens Cold and Cough; Assured Day time Cold and Cough; Assured Maximum Strength Mucus Relief; Assured Night time Cold and Cough; Auro Mucus - Childrens Cold, Cough and Sore Throat; Auro Tap Childrens Cold and Allergy; AuroFlu Day Time Severe Cold and Cough Warming Relief; AuroFlu Flu and Sore Throat Warming Relief; AuroFlu Night Time Severe Cold and Cough; AuroFlu Night Time Severe Cold and Cough Warming Relief; AuroMucus - Childrens Multi-Symptom Cold; AuroMucus - Childrens Stuffy Nose and Cold; AuroMucus - Fast Maximum Cold and Sinus; AuroMucus - Fast Maximum Cold, Flu and Sore Throat Relief; AuroMucus - Fast Maximum Severe Congestion and Cough; AuroMucus Fast Maximum Night Time Cold and Flu; AuroQuil COLD and FLU Day Time Multi-Symptom Relief; AuroQuil Severe Cold and Flu Daytime Relief; AuroQuil Severe Cold and Flu Nighttime Relief; Auroflu Day Time Severe Cold and Cough; Auromine Childrens Cold and Allergy; Aurophen Cold Multi Symptom; Aurophen Cold Multi-Symptom Severe; Aurophen Cold and Flu Severe; Aurotussin Peak Cold Maximum Strength Multi-Symptom Cold; Aurotussin Peak Cold Multi-Symptom Cold; Avedana Hemorrhoidal; Bactimicina Cough and Cold; Baczol Cold Medicine; Baczol Expectorant; Balahist DM Syrup; Balamine DM Syrup; Bc Daytime Multi-symptom; Bc Sinus Congestion and Pain; Benadryl Allergy & Sinus; Benadryl Allergy Plus Congestion; Benadryl Allergy Rapid Release; Benadryl Allergy Sinus Headache; Benadryl PE Total Extra Strength; Benadryl PE Total Regular Strength; Benylin All-IN-one Cold & Flu Daytime; Benylin All-IN-one Cold & Flu Nighttime; Benylin All-IN-one Cold and Flu Night PE Caplets; Benylin All-IN-one Cold and Flu PE Caplets; Benylin Cold & Sinus; Benylin Cold & Sinus Plus; Benylin Cold Strips; Benylin Cold and Sinus Night; Benylin Cold and Sinus Night Caplets; Benylin D for Infants; Benylin DM-D; Benylin DM-D Soft Chews With Menthactin; Benylin DM-D for Children; Benylin DM-D for Infants; Benylin DM-D-E; Benylin Extra Strength All-IN-one Cold and Flu; Benylin Extra Strength All-IN-one Cold and Flu Nightime; Benylin Extra Strength With Menthactin; Berkley and Jensen Nasal Decongestant PE Non-Drowsy Maximum Strength; Best Choice Daytime Severe Cold and Cough Berry infused with Menthol and Green Tea flavors; Best Choice Nighttime Severe Cold and Cough Honey Lemon infused with Chamomile and White Tea Flavors; Bio T Pres-B; Bio-B Kids; Bio-G-Tuss Pediatric Drops; Bio-S-Pres DX; Bio-rytuss; BioGtuss; BioGtuss NF; BioTPres; BioTPres Pediatric; Biobron DX; Biobron SF; Biocof; Biocotron PED; Biocotron-D; Biodesp DM; Biodesp DM NF; Biogtuss TR; Biohisdex DM Decongestant; Biohisdine DM Decongestant; Bionatuss DXP; Biophex TR; Bpm-DM-phen; Brohist D; Brom Tapp; Brom Tapp DM; Broncochem Allergy Control; Broncochem Cold and Flu Caplets; Broncochem Expectorant II; Broncochem Kids Cold and Flu; Broncofin; Broncolin Cold and Flu Relief; Broncomar; Broncomar EXPECTORANT; Broncotron D; Broncotron PED; Bronkids; Brontuss DX; Brontuss SF; Brontuss SF-NR; Brotapp PE-DM Cough and Cold Liquid; BroveX PEB; BroveX PEB DM; Buckley's Complete Cough, Cold & Flu Day; Buckley's Complete Cough, Cold & Flu Night; Buckley's Complete Relief; Buckley's Complete Relief + Mucus; Budpak Hemorrhoid Anesthetic; COLD FLU and SORE THROAT RELIEF; COLD and FLU DAYTIME MAXIMUM STRENGTH NON-DROWSY SEVERE; COLD and FLU Day Time Multi-Symptom Relief; COLDTAC Plus; COMTREX Maximum Strength Day / Night Severe Cold and Sinus; CVS - Childrens Mucus Relief Cough, Cold and Sore Throat; CVS - Childrens Stuffy Nose and Cold; CVS Chest Congestion Relief PE; CVS Daytime COLD and FLU RELIEF and Nighttime COLD and FLU RELIEF; CVS Daytime Severe Cough and Cold; CVS Health Chest Congestion Relief PE; CVS Health Extra Strength Sinus Relief Nasal Decongestant; CVS Health Four Actions Nasal Decongestant; CVS Health Multi Symptom Severe Cold MULTI SYMPTOM SEVERE COLD; CVS Health Nighttime Severe Cough and Cold Nighttime Severe Cold and Cough; CVS Health Non Drowsy Daytime Cold and Flu Relief And Nighttime Cold and Flu Relief Day and Night Twin Pack; CVS Health Non-Drowsy Daytime Cold and Flu Relief Single Serve Cups Daytime; CVS Hemorrhoidal; CVS Pharmacy Cold and Sore Throat Lemon Flavor; CVS Pharmacy Daytime Nighttime Severe Cold and Cough Kit; CVS Pharmacy Daytime Severe Cough and Cold Berry infused with Menthol and Green Tea flavors; CVS Pharmacy Nighttime Severe Cough and Cold honey lemon infused with chamomile and white tea flavors; CVS cough and severe cold night time honey lemon infused with chamomile and white tea flavors; CVS day time cough and severe cold berry infused with menthol and green tea flavors; Calmadol Plus; CapCof; Carbaphen CH; Carbaphen Ped CH; Carbatuss; Care One Cold Head Congestion; Care One Cold Head Congestion daytime non-drowsy; Care One Cold Multi Symptom; Care One Cold Mutli Symptom; Care One Cold and Allergy; Care One Flu and Severe Cold Daytime; Care One Flu and Severe Cold and Cough Daytime; Care One Flu and Severe Cold and Cough Nighttime; Care One Flu and Sore Throat; Care One Hemorrhoidal; Care One Nasal Decongestant PE Maximum Strength Non Drowsy; Care One Nasal Four; Care One Nose Drops; Care One Sinus Congestion and Pain; Care One Sinus and Allergy PE; Care One cold head congestion; CareOne Adult Tussin CF; CareOne Childrens Cold and Allergy; CareOne Childrens Cold and Cough; CareOne Childrens Mucus Relief; CareOne Cold Flu and sore throat; CareOne Cold and Sinus; CareOne Cold plus Flu Severe; CareOne Day Time Severe Cold Night Time Cold and Flu; CareOne DayTime Cold and Flu; CareOne Daytime Cold Flu Relief; CareOne Daytime Nighttime Cold Flu Relief; CareOne Daytime Nighttime Cold and Flu; CareOne Daytime Severe Cold and Cough Berry infused with Menthol and Green Tea flavors; CareOne Fast Acting Nasal; CareOne Hemorrhoidal; CareOne Mucus Relief; CareOne Mucus Relief Cold and Sinus; CareOne Mucus Relief Severe Congestion and Cold; CareOne Nighttime Severe Cold and Flu; CareOne Nitetime Severe Cold Flu Relief; CareOne Severe Cold; CareOne Sinus Plus Headache; CareOne Sinus Relief Severe; CareOne Sinus plus Headache; CareOne Triacting Night Time Cold and Cough Childrens; CareOne Tussin CF Multi Symptom Cold; Careone Allergy and Cough Severe Sinus Congestion; Careone Cold Max; Careone Day Severe Cold Night Cold and Flu; Careone Daytime Severe Cold Flu Relief; Careone Hemorrhoidal; Careone Severe Sinus Congestion; Careone Severe Sinus Congestion and Pain; Careone daytime severe cold and flu; Careone night time severe cold and cough honey lemon infused with chamomile and white tea flavors; Centussin Dhc; Children's Benadryl-D Syrup; Children's Coltalin Fruit Flavor Chewable Cold Tablets; Children's Tylenol Cold; Children's Tylenol Cold and Cough; Children's Tylenol Decongestant; Childrens Allergy Plus Congestion; Childrens Aurotussin Cough and Cold CF; Childrens Benadryl Allergy Plus Congestion; Childrens Benadryl-D ALLERGY and SINUS; Childrens Cold and Allergy; Childrens Cold and Allergy Relief; Childrens Cold and Cough; Childrens Cold and Cough Nighttime; Childrens Cold and Cough Relief; Childrens Cold, Cough and Sore Throat; Childrens Coltalin; Childrens Cough and Cold; Childrens Cough and Cold CF; Childrens Cough and Cold Nighttime; Childrens Day Time Cold and Cough; Childrens Daytime Cold and Cough; Childrens Delsym Cough Plus Cold Day Time; Childrens Delsym Cough Plus Cold Night Time; Childrens Dibromm Cold and Allergy; Childrens Dibromm Cold and Cough; Childrens Dimetapp Cold and Allergy; Childrens Dimetapp Cold and Cough; Childrens Dimetapp Multi-Symptom Cold Relief Dye-Free; Childrens Dimetapp Multi-Symptom Cold and Flu; Childrens Dimetapp Multisymptom Cold and Flu; Childrens Dimetapp Nighttime Cold and Congestion; Childrens Flu Relief; Childrens Metapp Daytime; Childrens Mucinex Cold, Cough and Sore Throat; Childrens Mucinex Congestion and Cough; Childrens Mucinex Multi Symptom Cold and Childrens Mucinex Night Time Multi Symptom Cold; Childrens Mucinex Multi-Symptom Cold; Childrens Mucinex Multi-Symptom Cold and Fever; Childrens Mucinex Night Time Multi-Symptom Cold; Childrens Mucinex Stuffy Nose and Cold; Childrens Mucus Relief; Childrens Mucus Relief Multi Symptom Cold; Childrens Multi Symptom Cold; Childrens Multi Symptom Fever and Cold; Childrens Multi-Symptom Cold; Childrens Multi-Symptom Cold Plus Dye-Free; Childrens Multi-Symptom Cold and Fever Relief; Childrens Multi-symptom Cold; Childrens Night Time COUGH and COLD RELIEF; Childrens Night Time Cold and Cough; Childrens Nighttime Cold and Cough; Childrens Plus Cold; Childrens Plus Cold Grape; Childrens Plus Flu; Childrens Plus Flu with PE; Childrens Plus Multi Symptom Cold; Childrens Plus Multi Symptom Cold DYE FREE; Childrens Plus Multi Symptom Cold Dye Free; Childrens Plus Multi-Symptom Cold Grape with PE; Childrens Plus Multi-Symptom Grape with PE; Childrens Plus Multi-Symptom with PE; Childrens Robitussin Cough and Cold CF; Childrens SUDAFED PE Cold plus Cough; Childrens Stuffy Nose and Cold; Childrens Sudafed PE NASAL DECONGESTANT; Childrens TYLENOL COLD Plus FLU; Childrens Triacting; Childrens Triacting Night Time Cold and Cough; Childrens Triacting Nighttime Cold and Cough; Childrens Triacting Nighttime Cold and Cough ReadyInCase; Childrens Tukol Multi-Symptom Cold and Flu; Childrens Tussnex; Childrens Tussnex Multi-symptom cold; Childrens Wal Tap DM; Childrens Wal Tap DM Cough and Cold; Childrens Wal Tap Elixer Cold and Allergy; Childrens mucus relief; Childrens mucus relief multi-symptom cold; Chloresin; Chlorpheniramine Maleate, Phenylephrine Hydrochloride; Circle K Cold; Circle K Daytime Cold and Flu; Circle K Multi-Symptom Sinus Relief; Citron Chaud Cumberland Pws; Citron Chaud DM Cumberland Pws; Citron Chaud DM Option + Pws; Citron Chaud Extra Fort; Citron Chaud RÃ©guliern DM; Clear Eyes Pure Relief Multisymptom; ClearTime; Cleartime; Clophed; Cocoa Butter, Phenylephrine Hydrochloride; Cocoa Butter, Phenylephrine Hydrochloride, Shark Liver Oil; Codituss DM; Cold; Cold & Allergy Relief - Liq; Cold & Flu; Cold & Flu Super Strength; Cold & Stuffy Nose; Cold Chest Congestion PE Regular Strength; Cold DayTime, Multi-Symptom, Non-drowsy; Cold Daytime; Cold Flu Relief Daytime; Cold Flu and Sore Throat; Cold Flu and Sore Throat Maximum Strength; Cold Flu and Sore Throat Relief Maximum Strength; Cold Formula Daytime Nighttime, Non-Aspirin, Multi-Symptom; Cold Head Congestion; Cold Head Congestion Daytime; Cold Head Congestion Daytime / Nighttime; Cold Head Congestion Daytime Non-Drowsy; Cold Head Congestion Night Time; Cold Head Congestion Nighttime; Cold Head Congestion Non-Drowsy; Cold Head Congestion Severe; Cold Liquid; Cold Liquid Grape Flavour; Cold MULTI-SYMPTOM, DAYTIME / NIGHTTIME; Cold Max Nighttime; Cold Medication Daytime Relief; Cold Medication Regular Nighttime Tablets PE; Cold Medicine; Cold Medicine XL-3 for Children; Cold Medicine XL3; Cold Medicine XL3 FORTE; Cold Multi Symptom; Cold Multi Symptom Daytime Nighttime; Cold Multi Symptom Nighttime; Cold Multi Symptom Relief; Cold Multi Symptom Severe; Cold Multi-Symptom; Cold Multi-Symptom Day-time; Cold Multi-Symptom Daytime; Cold Multi-Symptom Daytime Nighttime; Cold Multi-Symptom Daytime Non-Drowsy; Cold Multi-Symptom Daytime and Nighttime; Cold Multi-Symptom Night-time; Cold Multi-Symptom Nighttime; Cold Multi-Symptom Non-Drowsy, Daytime; Cold Multi-Symptom Severe; Cold Multi-Symptom Severe Day Time; Cold Multi-Symptom, Daytime; Cold PE; Cold Pain Relief; Cold Preparation; Cold Preparation For Cough and Sinus Relief; Cold Relief; Cold Relief Cold and Flu Severe; Cold Relief Daytime; Cold Relief Head Congestion; Cold Relief Head Congestion Daytime Non-Drowsy; Cold Relief Head Congestion Severe; Cold Relief Maximum Strength / Day Time; Cold Relief Multi Symptom; Cold Relief Multi Symptom Nighttime; Cold Relief Multi Symptom Severe; Cold Relief Multi-Symptom; Cold Relief Multi-Symptom Daytime; Cold Relief Multi-Symptom Severe; Cold Relief Multi-Symptom, Daytime, Nighttime, Non-drowsy; Cold Relief Multi-symptom; Cold Relief Multi-symptom Daytime; Cold Relief Multi-symptom, Daytime; Cold Relief Non Drowsy; Cold Relief Severe; Cold Relief Severe Head Congestion; Cold Relief Severe Pain Cough; Cold Relief Severe, Multi-symptom; Cold Stix; Cold Stix - Hot Lemon, Sugar-free; Sweetened With Xylitol; Cold Stix Super Strength; Cold Stix-extra Strength; Cold Stix-regular Strength; Cold Syrup; Cold Tabs II; Cold Terminator Max; Cold and Allergy; Cold and Allergy Childrens; Cold and Allergy Maximum Strength; Cold and Allergy Maximum strength; Cold and Allergy PE; Cold and Allergy Relief; Cold and Chest Congestion Relief; Cold and Congestion Childrens Nighttime; Cold and Cough; Cold and Cough Childrens; Cold and Cough DM; Cold and Cough Day Time Childrens; Cold and Cough MULTI-SYMPTOM DAYTIME / NIGHTTIME; Cold and Cough PE; Cold and Cough childrens; Cold and Flu; Cold and Flu Day Night; Cold and Flu DayTime; Cold and Flu DayTime, NightTime Severe; Cold and Flu Daytime; Cold and Flu Daytime Nighttime; Cold and Flu Daytime Relief; Cold and Flu Daytime Severe, Nighttime Severe; Cold and Flu Daytime, Nighttime, Maximum Strength; Cold and Flu Daytime, Nighttime, Multi-Symptom; Cold and Flu Daytime/Multi-Symptom/Non-Drowsy; Cold and Flu Multi-Symptom Daytime Nighttime; Cold and Flu Multi-Symptom Daytime/Nighttime Severe; Cold and Flu Multi-Symptom Nighttime Severe; Cold and Flu Nighttime; Cold and Flu Non-Drowsy, DayTime; Cold and Flu Non-Drowsy, Daytime; Cold and Flu Plus; Cold and Flu Relief; Cold and Flu Relief DayTime; Cold and Flu Relief Daytime; Cold and Flu Relief Daytime Multi Symptom; Cold and Flu Relief Daytime Nighttime; Cold and Flu Relief Daytime Non Drowsy; Cold and Flu Relief Daytime, Multi-Symptom; Cold and Flu Relief Multi symptom; Cold and Flu Relief Multi-Symptom; Cold and Flu Relief Multi-Symptom, Day, Night; Cold and Flu Relief Non-Drowsy / Daytime Severe / Nighttime Severe; Cold and Flu Relief Non-Drowsy, DayTime, Multi-Symptom; Cold and Flu Relief Severe; Cold and Flu Severe; Cold and Flu Severe Day Time / Night Time; Cold and Flu Severe, Nighttime, Maximum Strength; Cold and Flu severe; Cold and Head Congestion Relief Severe; Cold and Head Congestion Severe; Cold and Head Congestion Severe/Daytime; Cold and Sinus; Cold and Sinus Maximum Strength; Cold and Sinus Maximum Strength, Multi-Symptom; Cold and Sinus Maxium Strength; Cold and Sinus PE Pressure, Pain and Cold Non-Drowsy; Cold and Sinus Pain Relief; Cold relief; Cold, Flu and Sore Throat; Cold, Flu and Sore Throat Maximum Strength; Cold, Flu and Sore Throat Maximum Strength, Multi-Symptom; Cold, Flu and Sore Throat Maxium Strength; Cold, Flu and Sore Throat Relief Maximum Strength, Multi Symptom; Cold, Flu, and Sore Throat; Cold-EEZE Childrens Nighttime Cold and Cough Relief; Cold-EEZE Daytime Cold and Flu; Cold-EEZE Nighttime Cold and Flu; Cold-Flu Relief Multi Symptom; Cold/Flu Multi-Symptom Relief Daytime/Nighttime; Colds & Coughs; Coldtac Ultra; Coltalin; Coltalin Cold & Allergy Tablets; Coltalin-DM; Coltalin-ND; Complete Allergy and Sinus Multi Symptom; Complete One Cold and Flu PE Night; Comtrex Cough and Cold Day/Night; Comtrex Maximum Strength Cold and Cough Non-drowsy; ConRX DayTime; ConRX Pain Reliever Sinus Headache; ConRx Allergy Sinus; ConRx Allergy Sinus Multi-Symptoms; ConRx Cold; ConRx Sinus; Congestaid II; Congestion Relief; Congestion and Headache; Contac Cold & Sinus Extra Strength; Contac Cold & Sinus Hot Medicated Drink; Contac Cold Chest Congestion; Contac Cold Nasal Congestion; Contac Cold and Flu Day; Contac Cold and Flu Day Night; Contac Cold and Flu Maximum Strength; Contac Cold and Flu Night; Cooling Hemorrhoidal; Core Values Tussin CF; Coristine-DH Liq; Cough & Cold; Cough Cold and Sore Throat Childrens; Cough Formula Cough and Cold; Cough Multi Symptom; Cough Syrup; Cough Syrup DM Decongestant; Cough Syrup DM Decongestant and Expectorant With Acetaminophen; Cough Syrup DM Decongestant and Expectorant With Acetaminophen Extra Strength; Cough Syrup DM Decongestant for Children; Cough Syrup DM-decongestant Expectorant; Cough Syrup DM-decongestant-expectorant Extra Strength; Cough Tussin; Cough and Cold XL3 Xtra; Cough and Cold plus; Cough and Sinus PE Pressure, Pain and Cough Non-Drowsy; Cough, Cold & Allergy Relief; CounterAct Day; CounterAct Night; Cvs Children Decongestant Nose Drops; Cvs Health Hemorrhoidal Cooling Hemorrhoidal; Cvs Hemorrhoidal Cooling; Cyclomydril; D - Time; D Time Sinus; DAY Cold and Flu Plus and NIGHTTIME Cold and Flu Plus; DAY TIME COLD and FLU FORMULA; DAY TIME Cold Flu Medicine; DAY TIME and NIGHT TIME COLD and FLU FORMULA; DAYTIME COLD and FLU; DAYTIME SEVERE COLD and COUGH NIGHTTIME SEVERE COLD and COUGH; DDM Day time and Nite time cold and flu; DG Day Time Cold and Flu Formula and Night Time Cold and Flu Formula; DG Health Childrens Cold and Cough; DG Health Cold Head Congestion; DG Health Cold Max; DG Health Cold and Allergy; DG Health Cold and Flu Relief; DG Health Cold and Flu Relief Daytime; DG Health Fast Acting Mucus Relief Severe Cold; DG Health Fast Acting Mucus Relief Severe Congestion and Cold; DG Health Hemorrhoidal; DG Health Mucus Relief; DG Health Pain Relief Cold Night Time; DG Health Sinus PE; DG Health Triacting Childrens; DG Health Tussin; DG Health cold multi symptom nite time; DG Health cold multi symptom severe; DG Health nasal decongestant pe maximum strength; DG Health tussin cf adult cough and cold; DG health allergy multi symptom; DM Cough and Cold Liquid; DM Cough and Cold Liquid Cherry Flavour; DM Cough and Cold Relief; DM Cough and Cold Syrup; DS Never Cold S; Dallergy; Dallergy DROPS; Day & Night Combo Pack; Day Night Cold and Flu; Day Relief Night Relief Free; Day Relief Night Relief Sinus PE; Day Relief PE; Day Relief Sinus PE; Day Severe Cold Night Cold and Flu; Day Severe Cold and Night Cold and Flu Maximum Strength; Day Time; Day Time COLD and FLU non-drowsy; Day Time Cold Flu Relief; Day Time Cold Head Congestion Severe; Day Time Cold Multi-Symptom; Day Time Cold Multi-Symptom Cool Blast; Day Time Cold and Flu; Day Time Cold and Flu Multi-Symptom Relief; Day Time Cold and Flu Non Drowsy ReadyInCase; Day Time Cold and Flu Relief; Day Time Cold and Flu Relief non drowsy; Day Time Cold and Flu Severe; Day Time Cold and Flu cold and flu multi symptom relief; Day Time Cold and Flu non drowsy; Day Time Cold and FlueNon drowsy Non drowsy; Day Time Cold non drowsy cold and Flu Relief; Day Time Cold/Flu Relief; Day Time Gelcap; Day Time Multi-Symptom Cold/Flu Relief; Day Time Multi-Symptom Flu Cold Medicine; Day Time Night Time; Day Time Night Time Cold and Flu; Day Time Night Time Sinus Relief; Day Time Non Drowsy; Day Time PE cold and flu relief; Day Time Severe; Day Time Severe Cold and Cough; Day Time Sinus; Day Time Sinus Pain Reliever, Nasal Decongestant; Day Time Sinus Relief; Day Time Softgels; Day Time and Night Time Sinus and Congestion; Day Time with PE; Day and Night Cold; Day and Night Cold PE; Day and Night Cold and Flu Formula; Day and Night Sinus Maximum Strength; Day time cold and flu; Day-Time NON-DROWSY COLD/FLU RELIEF; Day-Time Night-Time; Day-time Cold and Flu; DayClear COUGH COLD AND FLU; DayClear SINUS PAIN AND PRESSURE; DayQuil Cold and Flu; DayQuil Severe; DayQuil Severe Cold and Flu; DayRelief Multi symptom; DayRelief NON DROWSY MULTI SYMPTOM COLD FLU; DayTime; DayTime Cold Flu Non Drowsy; DayTime Cold Flu Non-Drowsy; DayTime Cold and Cough Childrens; DayTime Cold and Flu; DayTime Cold and Flu Non Drowsy; DayTime Cold and Flu Relief; DayTime Cold and Flu Severe and NightTime Cold and Flu Severe; DayTime Maximum Strength Cold and Flu; DayTime Multi-Symptom; DayTime Multi-Symptom Flu Cold Medicine; DayTime NightTime Cold and Flu; DayTime NightTime Cold/Flu; DayTime NightTime Sinus Relief; DayTime Nighttime; DayTime Nighttime multi symptom cold and flu relief; DayTime Nite Time; DayTime NiteTime Cold Flu Relief; DayTime NiteTime Cold and Flu; DayTime Nitetime Sinus Relief; DayTime Nitetime cold and flu relief; DayTime Severe Cold and Flu Relief; DayTime Sinus; DayTime Sinus Relief; DayTime and NiteTime; DayTime/NiteTime Severe Cold and Flu Maximum Strength; Daycap Cold and Flu Liquid Gels; Daycap Sinus Liquid Gels; Dayquil Cold & Flu; Dayquil Sinus Liquicaps; Dayrelief PE; Daytime; Daytime Cold & Flu Relief; Daytime Cold Flu Relief; Daytime Cold Flu multi Symptom; Daytime Cold Relief Extra Strength; Daytime Cold Relief Extra Strength Tablets PE; Daytime Cold Relief Multi Symptom; Daytime Cold and Cough and NightTime Cold and Congestion Childrens; Daytime Cold and Flu; Daytime Cold and Flu Circle K; Daytime Cold and Flu Lil Drug Store Products; Daytime Cold and Flu Multi symptom relief; Daytime Cold and Flu Non Drowsy; Daytime Cold and Flu Non drowsy; Daytime Cold and Flu Relief; Daytime Cold and Flu Relief Non Drowsy; Daytime Cold and Flu Relief Plus; Daytime Cold and Flu and Nighttime Cold and Flu; Daytime Cold and Flu relief; Daytime Cold and Pain Relief; Daytime Cold, Nighttime Cold multi-symptom; Daytime Cold/flu Medicine; Daytime Complete; Daytime Congestion Pressure and Pain; Daytime Congestion and Pain Sinus Relief; Daytime Cough; Daytime Cough & Cold; Daytime Cough And Cold; Daytime Cough and Cold; Daytime Fast Severe Cold Relief Nitetime Fast Cold and Flu Relief; Daytime Flu Relief Therapy; Daytime Flu Relief Therapy Severe Cough and Cold; Daytime Flu and Severe; Daytime Mucus Relief Nighttime Cold and Flu; Daytime Multi-Symptom Cold Relief; Daytime Multi-Symptom Cold/Flu Relief; Daytime Multi-Symptom Non-Drowsy Cold and Flu; Daytime Multi-symptom Cold Relief; Daytime Nighttime; Daytime Nighttime ClearTime; Daytime Nighttime Cold Flu Relief; Daytime Nighttime Cold and Cough Childrens; Daytime Nighttime Cold and Flu; Daytime Nighttime Cold and Flu Relief; Daytime Nighttime Cold and Flu Relief Multi-Symptom; Daytime Nighttime Cold/Flu; Daytime Nighttime Cold/flu; Daytime Nighttime Multi Symptom Cold Flu Relief; Daytime Nighttime Multi Symptom Cold and Flu Relief; Daytime Nighttime Severe Cold; Daytime Nighttime Severe Cold and Flu; Daytime Nighttime Severe Cold and Flu Relief; Daytime Nighttime Severe Cough and Cold; Daytime Nighttime Sinus Relief; Daytime Nighttime cold and flu relief; Daytime NiteTime; Daytime Nitetime; Daytime Nitetime Cold and Flu; Daytime Nitetime Sinus; Daytime Non Drowsy; Daytime Non-Drowsy COLD/FLU; Daytime PE; Daytime PE Nitetime; Daytime PE Non Drowsy; Daytime Relief Severe Cold and Flu; Daytime SEVERE COLD and FLU; Daytime Severe; Daytime Severe Cold Multi-symptom; Daytime Severe Cold and Cough; Daytime Severe Cold and Cough Relief; Daytime Severe Cold and Flu; Daytime Severe Cold and Flu Maximum Strength; Daytime Severe Cold and Flu Relief; Daytime Severe Cold and Flu Relief Maximum Strength; Daytime Sinus; Daytime Sinus Nighttime Sinus Maximum Strength; Daytime Sinus Non-Drowsy; Daytime Sinus Relief; Daytime Sinus Relief Extra Strength Tablet; Daytime Sinus Relief Extra Strength Tablets PE; Daytime Sinus Relief Non Drowsy; Daytime Sinus Relief and Nighttime Sinus Relief; Daytime Sinus and Congestion; Daytime Symptom Relief Extra Strength for Symptoms Of Cold and Cough; Daytime and Nighttime Cold and Flu; Daytime and Nighttime Cold and Flu Relief; Daytime and Nighttime Cold and Flu Relief Plus; Daytime cold and flu non drowsy; Daytime cold and flu relief; Daytime sinus; Daytime sinus Non Drowsy; Daytime/Nighttime Cold and Flu Multi-Symptom Relief; De-Chlor DM; Deconex; Deconex DM; Deconex DMX; Deconex Dmx; Deconex IR; Deconex Ir; Decongestant Antihistaminic Syrup; Decongestant II; Decongestant PE; Defensol D; Defensol D (Multi Symptom Effervescent Tablets); Defensol-ito; Defensolito; Delsym Childrens Night Time Cough and Cold; Delsym Cough Plus Cold Day Time; Delsym Cough Plus Cold Night Time; Delsym Night Time Cough and Cold; Desenfriol-D; Desgen DM; Desgen Pediatric; Despec; Despec DM; Despec EDA Drops; Dg Health Childrens Mucus Relief; Dg Health Cold Head Congestion Severe Day Time; Dg Health Cold Plus Flu Relief; Dg Health Cold and Allergy Childrens; Dg Health Cold and Flu Relief; Dg Health Cold and Flu Severe; Dg Health Flu and Severe Cold and Cough; Dg Health Hemorrhoidal; Dg Health Mucus Relief; Dg Health Multi Symptom Severe Cold; Dg Health Sinus Congestion and Pain; Dg Health Triacting Night Time Cold and Cough; DiBromm DM; DiBromm with PE; Dibromm Cold and Allergy Childrens; Dibromm Cold and Cough Childrens; Dibromm DM; Dibromm With PE; Dilotab II; Dimaphen; Dimaphen DM; Dimetane Expectorant C; Dimetane Expectorant Dc; Dimetane Expectorant Liq; Dimetane Expectorant-C Syr; Dimetane Expectorant-DC Syr; Dimetapp; Dimetapp Chewables for Kids; Dimetapp Cold & Sinus; Dimetapp DM Cough & Cold; Dimetapp DM Elixir; Dimetapp DM Tab; Dimetapp Elixir; Dimetapp Extentabs; Dimetapp Extra Strength; Dimetapp Extra Strength DM Cough & Cold; Dimetapp Nighttime Cold Extra Strength Caplets; Dimetapp Nighttime Cold Tablets; Dimetapp Oral Infant Cold Drops; Dimetapp Oral Infant Cold and Fever Drops; Dimetapp Oral Infant Drops; Dimetapp Tab; Dimetapp-C; Dimetapp-C Syr; Diophenyl-T Solution; Diorouge Liq; Doctor Manzanilla Allergy and Decongestant Relief; Doctor Manzanilla Cough Suppressant and Nasal Decongestant; Doctor Manzanilla Cough and Cold; Dometuss-DA; Dometuss-G; Dometuss-NR; Dometuss-dmx; Donatussin; Donatussin DM Drops DM; Donatussin DROPS; Dover Coldonyl; Dover Sudanyl PE; Dr. Cocoa Daytime Cough and Cold; Dr. Cocoa Mucus Relief; Dr. Cocoa Nighttime Cough and Cold; Dr. Cocoa for Children Daytime Cough + Cold; Dr. Cocoa for Children Nighttime Cough + Cold; Dristan Cold Multisymptom; Dristan Extra Strength Caplets; Dristan Mentholated Nasal Spray; Dristan Nasal Mist; Dristan Tablets; DryMax AF; Duravent DM; Duravent PE; Eb306 Nasal Decongestant; Ed A-hist; Ed A-hist DM; Ed Bron Gp; Ed Chlorped D; Ed-A-hist DM; Effervescent Cold Relief; Effervescent Orange Cold Relief; EndaCof DM; Entex Lq; Ephrine Nose Extra Strength; Equaline Childrens Cold; Equaline Childrens Cold and Cough; Equaline Childrens Mucus Relief; Equaline Cold and Flu Relief; Equaline Daytime Cold Multi Symptom; Equaline Daytime Cold and Flu Relief; Equaline Daytime Nighttime Cold and Flu Relief; Equaline Daytime Severe Cold Fast Relief Nighttime Cold and Flu Fast Relief; Equaline Daytime Severe Cold and Flu Relief; Equaline Daytime and Nighttime Cold; Equaline Daytime and Nighttime Cold and Flu Relief; Equaline Fast Acting; Equaline Flu and Severe Cold and Cough; Equaline Flu and Sore Throat; Equaline Hemorrhoidal; Equaline Mucus Relief; Equaline Multi Symptom Flu and Severe Cold Daytime; Equaline Nasal Decongestant PE Non Drowsy Maximum Strength; Equaline Night Time Cold and Cough Childrens; Equaline Nighttime Severe Cold and Flu; Equaline Sinus Congestion and Pain Daytime; Equaline Tussin Cough and Cold; Equaline Tussin Multi Symptom; Equaline congestion relief; Equaline hemorrhoial; Equaline hemorrhoidal cooling; Equaline mucus relief; Equaline nighttime cold multi symptom; Equate Childrens Cold and Cough; Equate Day time cold and flu multi symptom relief; Equate DayTime NiteTime; Equate DayTime NiteTime Severe; Equate DayTime Severe; Equate Daytime; Equate Daytime Cold and Flu; Equate Daytime Nitetime; Equate Daytime Severe; Equate Flu and Severe Cold and Cough; Equate Hemorrhodial Suppositories; Equate Hemorrhoidal; Equate Nasal; Equate Nasal Decongestant PE Maximum Strength; Equate Night Time Cold and Cough Childrens; Equate NiteTime DayTime; Equate Nitetime Severe; Equate Severe Cold Multi Symptom; Equate Sinus Day Time; Equate Sinus Night Time; Equate Suphedrine PE; Equate Tussin CF; Equate hemorrhoidal; Exchange Select Hemorrhoidal; Expectorant-decongestant Syrup; Extra Fast Coltalin; Extra Strength Cold Liquid; Extra Strength Cold Medication Day Time Relief; Extra Strength Cold Medication Night Time Relief; Extra Strength Cold Syrup; Extra Strength Contac Cold & Sinus Hot Medicated Drink; Extra Strength Contac Cold & Sore Throat; Extra Strength Contac Complete Cough, Cold & Flu; Extra Strength Contac Plus Cold Nasal Congestion; Extra Strength DM Cough and Cold Liquid; Extra Strength DM Cough and Cold Syrup; Extra Strength Daytime Cold Relief PE; Extra Strength Daytime Flu PE; Extra Strength Multi-symptom Relief Sugar Free; Extra Strength Neocitran Cold Syrup With Mucus Relief; Extra Strength Neocitran Flu Syrup; Extra Strength Neocitran Total Symptom Relief - Sugar Free; Extra Strength Neocitran Total Syrup; Extra Strength Nighttime Cold Relief PE; Extra Strength Nighttime Flu PE; Extra Strength Pharmacitron; Extra Strength Sinus Congestion and Headache Day Time Relief; Extra Strength Sinus Relief Nasal Decongestant; Extra Strength Total Symptom Relief Sugar-free; Extra Strength Tylenol Allergy; Extra Strength Tylenol Cold Daytime; Extra Strength Tylenol Cold Nighttime; Extra Strength Tylenol Cold and Flu Daytime; Extra Strength Tylenol Cold and Flu Nighttime; Extra Strength Tylenol Flu Daytime; Extra Strength Tylenol Flu Nighttime; Extra Strength Tylenol Sinus Daytime; Extra Strength Tylenol Sinus Nighttime; Facol Cold and Flu Day; Facol Cold and Flu Day and Night; Facol Cold and Flu Night; Family Care Childrens Decongestant Nose Drops; Family Care Cold and Flu Multi Symptom; Family Care Hemorrhoidal; Family Care Multi Symptom Cold; Family Dollar Multi-Symptom Severe Cold Green Tea and Honey Lemon flavors; Family Dollar Nighttime Severe Cold and Cough honey lemon infused with chamomile and white tea flavors; Family Wellness; Family Wellness Effervescent Cold Relief Orange; Family Wellness Effervescent Cold Relief Original; Family Wellness Hemorrhoidal; Family wellness; Family wellness hemorrhoidal; Fast Acting Mucus Relief Maximum Strength Severe Cough and Congestion; Fast Cold and Flu Relief; Fast Maximum Night Time Cold and Flu; Fast Maximum Severe Congestion and Cough; Fast Mucus Relief; Fast Mucus Relief Cold Flu and Sore Throat Maximum Strength Multi-Symptom; Fedrin; First Aid Shot Therapy Cold Relief; Fleet; Flu Multi Symptom Relief; Flu Relief Childrens; Flu Relief Cold and Chest Congestion; Flu Relief Therapy; Flu Relief Therapy Day Time; Flu Relief Therapy Daytime; Flu Relief Therapy Daytime Severe Cold; Flu Relief Therapy Night Time; Flu Relief Therapy Nighttime; Flu Relief Therapy Nighttime Severe Cold; Flu Relief Therapy Severe Cough and Cold Nighttime; Flu and Severe Cold; Flu and Severe Cold Daytime Relief; Flu and Severe Cold Nighttime Relief; Flu and Severe Cold and Cough; Flu and Severe Cold and Cough Daytime; Flu and Severe Cold and Cough Night Time; Flu and Severe Cold and Cough Nighttime; Flu and Severe Cold and Cough Nite Time; Flu and Severe Cold and Cough daytime; Flu and Sore Throat; Flu and Sore Throat Multi Symptom; Flu and Sore Throat Relief; Flu and Sore Throat Soothing Warm Relief; Flu and severe cold daytime nighttime; Flu, Cough and Sore Throat; Flu-away-extra Strength; Flu-away-regular Strength; Fluact; Formu Care Flu and Severe Cold and Cough Night Time; Formulation R; Formulation R Hemorrhoidal Ointment; Formulation R Hemorrhoidal Suppositories; Freds Hemorrhoidal; Fulton Street Market Cold; Fulton Street Market Nighttime Flu and Severe Cold and Cough; G-P-tuss Dxp; G-Supress DX; G-bronco-D; G-tron Ped; G-tron Pediatric Drops; G-tusicof; Gencontuss; Gilphex TR; Giltuss; Giltuss Pediatric; Giltuss Total Release; Glen PE; Glenmax PEB; Glenmax PEB DM; Glenmax PEB DM FORTE; Glycerin, Phenylephrine Hydrochloride, Pramoxine, White Petrolatum; Good Neighbor Pharmacy Allergy Multi Symptom; Good Neighbor Pharmacy Childrens Mucus Relief; Good Neighbor Pharmacy Cleartime; Good Neighbor Pharmacy Cold; Good Neighbor Pharmacy Cold Head Congestion; Good Neighbor Pharmacy Cold Multi Symptom; Good Neighbor Pharmacy Cold Plus Multi Symptom; Good Neighbor Pharmacy Cold Severe; Good Neighbor Pharmacy Cold and Allergy Childrens; Good Neighbor Pharmacy Cold and Allergy PE; Good Neighbor Pharmacy Cold and Cough; Good Neighbor Pharmacy Cold and Flu Night Time; Good Neighbor Pharmacy Congestion Relief; Good Neighbor Pharmacy Day Time; Good Neighbor Pharmacy Day Time Cold and Flu; Good Neighbor Pharmacy Day Time Severe; Good Neighbor Pharmacy Fast Acting Nasal; Good Neighbor Pharmacy Flu and Severe Cold Daytime; Good Neighbor Pharmacy Flu and Severe Cold and Cough; Good Neighbor Pharmacy Flu and Severe Cold and Cough Nighttime; Good Neighbor Pharmacy Flu and Sore throat; Good Neighbor Pharmacy Hemorrhoidal; Good Neighbor Pharmacy Mucus Relief PE PE; Good Neighbor Pharmacy Mucus Relief Severe Cold; Good Neighbor Pharmacy Mucus Relief Severe Cold Cold and Flu Night Time; Good Neighbor Pharmacy Mucus Relief Severe Congestion and Cold; Good Neighbor Pharmacy Mucus Relief cold and sinus; Good Neighbor Pharmacy Nasal Decongestant PE Non Drowsy; Good Neighbor Pharmacy Night Time; Good Neighbor Pharmacy Night Time Severe; Good Neighbor Pharmacy Nose; Good Neighbor Pharmacy Severe Cold; Good Neighbor Pharmacy Severe Day Time; Good Neighbor Pharmacy Severe Night Time; Good Neighbor Pharmacy Severe Sinus Congestion; Good Neighbor Pharmacy Sinus; Good Neighbor Pharmacy Sinus Congestion and Pain; Good Neighbor Pharmacy Sinus Relief; Good Neighbor Pharmacy Sinus Relief Day Time Night Time; Good Neighbor Pharmacy Sinus and Allergy PE; Good Neighbor Pharmacy Tussin CF; Good Neighbor Pharmacy Tussin CF Max; Good Neighbor pharmacy severe night time; Good Sense Allergy Multi Symptom; Good Sense Childrens Cold and Allergy; Good Sense Childrens Cold and Cough; Good Sense Childrens Mucus Relief; Good Sense Cold; Good Sense Cold Head Congestion; Good Sense Cold Head Congestion Severe; Good Sense Cold Max; Good Sense Cold and Allergy; Good Sense Cold and Flu Severe; Good Sense Daytime; Good Sense Daytime non drowsy cold and flu; Good Sense Flu and Severe Cold and Cough; Good Sense Flu and Severe Cold and Cough Daytime; Good Sense Flu and Severe Cold and Cough Nighttime; Good Sense Flu and Sore Throat; Good Sense Hemorrhoidal; Good Sense Hemorrhoidal Maximum Strength Pain Relief; Good Sense Mucus Relief Cold and Sinus; Good Sense Mucus Relief Severe Congestion and Cold; Good Sense Mucus Relief cold flu and sore throat; Good Sense Multi Symptom Flu and Severe Cold; Good Sense Nasal Decongestant PE; Good Sense Nasal Four; Good Sense NightTime DayTime Cold and Flu; Good Sense Severe Cold; Good Sense Severe Daytime Cold and Flu; Good Sense Severe NightTime; Good Sense Severe NightTime Cold and Flu; Good Sense Severe Sinus Congestion; Good Sense Sinus Congestion and Pain; Good Sense Sinus Relief; Good Sense Sinus and Allergy PE; Good Sense Sinus plus Headache; Good Sense Tussin CF; Good Sense Tussin CF Cough and Cold; Good Sense Tussin CF Max; Good Sense cold multi symptom; Good Sense hemorrhoidal; Good neighbor pharmacy mucus relief; Goyescas 7 Syrups Alcohol and Sugar Free Cough and Cold; Goyescas 7 Syrups Original Cough and Cold; Goyescas 7 Syrups with Bee Honey Cough and Cold; Goyescas Broncovac 1 Cough and Cold; Goyescas Broncovac 2 Cough and Cold; Goyescas Broncovac 3 Cough and Cold; Green Guard Advanced Sinus Relief; Green Guard Allergy 2 Relief; Green Guard Cough and Cold Relief; Grippe Extra Fort Jour; Grippe Extra Fort Nuit; Guaifenesin Phenylephrine Dextromethorphan; H E B MAX SEVERE CONGESTION and COUGH Maxium Strength; HEB Day Time Night Time Severe Cold and Flu; HEB DayTime Flu And Severe Cold And Cough; Handy Solutions Cold Relief; Handy Solutions Sinus Congestion and Pain Relief; Harmon Face Values Tussin CF; Harris Teeter Day Time; Harris Teeter DayTime; Harris Teeter DayTime NightTime; Harris Teeter Hemorrhoidal; Harris Teeter Sinus Relief; Harris Teeter Tussin; Head Congestion; Head Congestion Cold Relief; Head Congestion Cold Relief Severe Non-Drowsy; Head Congestion Daytime and Nighttime Cold; Head Congestion and Cold Relief Daytime; Health Mart Adult Tussin; Health Mart Cold and Allergy Childrens; Health Mart Cold and Cough childrens; Health Mart Daytime; Health Mart Hemorrhoidal; Health Mart Nasal Decongestant PE; Health Mart Nose; Health Mart Severe Cold Cough and Flu; Health Mart Severe Cold and Flu; Health Mart severe cold cough and flu; HealthMart Mucus Relief FM; Healthy Accents Allergy Multi Symptom; Healthy Accents Childrens Cold and Cough; Healthy Accents Childrens Multi Symptom Fever and Cold; Healthy Accents Cleartime; Healthy Accents Cold; Healthy Accents Cold Head Congestion; Healthy Accents Cold and Allergy Childrens; Healthy Accents Cold and Flu; Healthy Accents Congestion Relief; Healthy Accents Daytime; Healthy Accents Daytime Cold and Flu; Healthy Accents Daytime Nighttime Cold and Flu; Healthy Accents Hemorrhoidal; Healthy Accents Mucus Relief Severe Cold; Healthy Accents Mucus Relief Severe Congestion and Cold; Healthy Accents Mucus Relief cold and sinus; Healthy Accents Mucus Relief cold flu and sore throat; Healthy Accents Multi Symptom Cold; Healthy Accents Nasal; Healthy Accents Nasal Decongestant Maximum Strength; Healthy Accents Nighttime Daytime Cold and Flu; Healthy Accents Severe Cold; Healthy Accents Severe Cold Daytime; Healthy Accents Sinus; Healthy Accents Sinus Congestion and Pain Day Time; Healthy Accents Sinus Day Time; Healthy Accents Sinus Relief; Healthy Accents Tussin CF; Healthy Accents cold head congestion daytime non drowsy; Healthy Accents hemorrhoidal; Healthy accents hemorrhoidal; Help I Have The Sniffles; Help I Have a Stuffy Nose; HemAway; Hemorrhoid Anesthetic; Hemorrhoid Relief; Hemorrhoid and Fissure Dr. Butler; Hemorrhoidal; Hemorrhoidal Anesthetic; Hemorrhoidal Cooling; Hemorrhoidal Cooling Gel; Hemorrhoidal Maximum Strength Pain Relief; Hemorrhoidal Ointment; Hemorrhoidal Rectal; Hemorrhoidal Relief; Hemorrhoidal Relief Ointment; Hemorrhoidal Soothing Well at Walgreens; Hemorrhoidal Suppositories; Hemorrhoidal cooling; HemorrhoidalOintment; Hemorrodil; Histenol Forte II; Histenol II; Histex Ac; Histex-DM; Histex-PE; Hot Lemon Cold and Flu Relief Extra Strength; Hot Lemon Cold and Flu Relief Regular Strength; Hot Lemon Cough and Cold Relief DM; Hot Lemon Cough and Colds Relief DM; Hot Lemon Extra Strength; Hot Lemon Regular - Pwr; Hot Lemon Relief - Extra Strength; Hot Lemon Relief Extra Strength; Hot Lemon Relief Pck-pws; Hot Lemon Relief Powder; Hot Lemon Relief Powder Extra Strength; Hot Lemon Relief Powder Regular Strength; Hot Lemon Relief Regular Strength; Hot Lemon Relief for Cold Symptoms Ext Str; Hot Lemon Relief for Cold Symptoms Pws; Hot Lemon Relief for Symptoms Of Cold and Flu; Hot Lemon Relief for Symptoms Of Cold and Flu Extra Strength; Hot Lemon Relief for Symptoms Of Cold and Flu Forte; Hot Lemon Relief for Symptoms Of Cold and Flu Regular Strength; Hot Lemon Relief for Symptoms Of Cough and Cold; Hot Lemon Relief-extra Strength Pck-pws; Hot Lemon for Colds Powder; Hot Liquid Relief for Symptoms Of Cold and Cough; Hot Liquid Relief for Symptoms Of Flu and Sore Throat; Humana Pharmacy Daytime Cold and Flu Relief; Humana Pharmacy Hemorrhoidal; Humana Pharmacy Nasal Decongestant PE; Humana Pharmacy Sinus Relief; Humana Pharmacy Tussin Multi Symptom Cold; Hycomine; Hycomine-S; Igualtuss; J-max; Jack & Jill Bedtime Cough & Cold; Jack & Jill Complete; Jack & Jill Cough & Cold; Junior Strength Tylenol Cold and Cough; KMart - Fast Maximum Cold and Sinus; KMart - Fast Maximum Cold, Flu and Sore Throat Relief; KMart - Fast Maximum Severe Congestion and Cough; Kids Cold Chewable Tablets; Kids-EEZE Cough and Cold; Kirkland Signature Cold; Klernaz; Kroger Cough Cold and Flu; Kroger DayTime Flu plus Severe Cold and Cough; Kroger NiteTime Cold and Flu; Kroger NiteTime Flu plus Severe Cold and Cough; Kroger Sinus Pain and Pressure; LEADER Chest Congestion Relief PE; Leader; Leader Allergy Multi Symptom; Leader Childrens Cold and Allergy; Leader Childrens Cold and Cough; Leader Childrens Mucus Relief; Leader Childrens Mucus Relief Multi Symptom Cold; Leader Cold Head Congestion; Leader Cold Relief; Leader Cold and Allergy; Leader Cold and Flu; Leader Congestion Relief; Leader Day Time; Leader Day Time Multi Symptom Cold Flu Relief; Leader Day time Cough and Cold Childrens; Leader Daytime Cold and Flu; Leader Daytime Severe Cold and Flu; Leader Flu and Severe Cold and Cough; Leader Hemorrhoidal; Leader Hemorrholidal; Leader Mucus Relief; Leader Mucus Relief Cold Flu and Sore Throat; Leader Mucus Relief Cold and Sinus; Leader Mucus Relief Sever Cold; Leader Mucus Relief Severe Congestion and Cold; Leader Nasal Decongestant PE Maximum Strength; Leader Night Time Cough and Cold Childrens Triacting; Leader Nighttime Severe Cold and Flu; Leader Nite Time Severe Cold and Flu; Leader Nose; Leader Severe Cold and Flu; Leader Severe Sinus Congestion; Leader Sinus Congestion and Pain Daytime Non Drowsy; Leader Sinus Relief; Leader Sinus and Allergy PE; Leader Tussin; Leader Tussin CF; Leader Tussin CF Max; Leader mucus relief cold and sinus; Leader multi symptom flu and severe cold; Leader severe cold and flu; Leader sinus relief; Lemon Time; Lil Drug Store Allergy Sinus Relief; Lil Drug Store Cold Relief; Lil Drug Store Multi-Symptom Sinus Relief; Lil Drug Store Multi-Symptom Sinus Severe Congestion; Lil Drug Store NyQuil Severe Cold and Flu, Max Strength; Little Colds Decongestant Plus Cough; Little Colds Multi Symptom Cold; Little Colds Multi Symptom Cold plus Fever; Little Colds Multi-symptom Cold Formula; Little Noses Decongestant Nose Drops; LoHist DM; LoHist PEB; LoHist PEB DM; Lucky SuperSoft; Lusair; M-Hist DM; M-end PE; MAX Cold, Flu, and Sore Throat; MAXIUM STRENGTH SEVERE CONGESTION and COUGH MAX; Major Prep Hemorrhoidal; Makesense; Mapap Sinus Congestion and Pain Maximum Strength; Maximum Strength Congestion and Headache; Maximum Strength Daytime Cold/Flu Relief; Maximum Strength Mucus Relief Cold Flu and Sore Throat; Maximum Strength Mucus Relief Cold,Flu and Sore Throat; Maximum Strength Mucus Relief Severe Congestion and Cough; Maximum Strength Night Time Cold and Flu Relief; Maximum Strength Nighttime Cold/Flu Relief; Maxiphen; Maxiphen DM; Mayinglong Bezornil Hemorrhoidal; Medi First Plus Sinus Pain and Pressure; Medi First Sinus Pain and Pressure; Medi-First Cold Relief; Medi-First Plus Cold Relief; Medi-First Sinus Decongestant; Medicated Hemorrhoidal CVS; Medique CCP Caffeine Free; Medique Decorel Forte Plus; Medique Medi-Phenyl; Medique Medicidin D; Medique Onset Forte; Meijer Daytime Severe Cold and Cough Berry infused with Menthol and Green Tea flavors; Meijer Multi-Symptom Severe Cold Green Tea and Honey Lemon flavors; Meijer Nighttime Severe Cold and Cough Honey Lemon infused with Chamomile and White Tea Flavors; Members Mark Allergy; Mineral Oil, Petrolatum and Phenylephrine HCl; Mineral Oil, Petrolatum, Phenylephrine Hydrochloride, Shark Liver Oil; Minims Phenylephrine Hydrochloride 10%; Minims Phenylephrine Hydrochloride 2.5%; Moore Medical MooreBrand Severe Cold Relief; Moore Medical Sinus Pain and Pressure Relief; MooreBrand Phenylephrine; MucaphEd; Mucinex Fast-Max Cold and Sinus; Mucinex Fast-Max Cold, Flu and Sore Throat; Mucinex Fast-Max Cold, Flu and Sore Throat Clear and Cool; Mucinex Fast-Max Congestion and Headache; Mucinex Fast-Max Congestion and Headache Clear and Cool; Mucinex Fast-Max Day Severe Cold and Night Cold and Flu; Mucinex Fast-Max Day Time Severe Cold and Mucinex Fast-Max Night Time Cold and Flu Maximum Strength; Mucinex Fast-Max Day Time Severe Congestion and Cough - Mucinex Fast-Max Night Time Cold and Flu Maximum Strength; Mucinex Fast-Max Day Time Severe Congestion and Cough and Mucinex Fast-Max Night Time Cold and Flu Maximum Strength; Mucinex Fast-Max Night Time Cold and Flu; Mucinex Fast-Max Night Time Cold and Flu Clear and Cool; Mucinex Fast-Max SEVERE COLD; Mucinex Fast-Max Severe Cold; Mucinex Fast-Max Severe Cold and Sinus; Mucinex Fast-Max Severe Congestion and Cold; Mucinex Fast-Max Severe Congestion and Cough; Mucinex Fast-Max Severe Congestion and Cough Clear and Cool; Mucinex Fast-Max Severe Congestion and Cough Clear and Cool and Mucinex Fast-Max Night Time Cold and Flu Clear and Cool; Mucinex Fast-Max Severe Congestion and Cough Liquid Pouches; Mucinex Multi-action Cold & Sinus Caplets; Mucinex Multi-action Cold & Sinus Liquid; Mucinex Multi-action Cold, Flu & Sore Throat Caplets; Mucinex Multi-action Cold, Flu & Sore Throat Liquid; Mucinex Multi-action Congestion & Cold Caplets; Mucinex Multi-action Congestion, Stuffy Nose & Cough Liquid; Mucinex Sinus - Max Day / Night; Mucinex Sinus-Max Day Night Maximum Strength; Mucinex Sinus-Max Day Time Severe Congestion Relief and Mucinex Sinus-Max Night Time Congestion and Cough Maximum Strength; Mucinex Sinus-Max Night Time Congestion and Cough; Mucinex Sinus-Max Pressure and Pain; Mucinex Sinus-Max Pressure, Pain and Cough; Mucinex Sinus-Max Severe Congestion Relief; Mucinex Sinus-Max Severe Congestion Relief Clear and Cool; Mucinex Sinus-Max Severe Congestion Relief Maximum Strength; Mucinex Sinus-Max Severe Congestion and Pain; Mucinex Sinus-action Complete Congestion and Sinus Pain; Mucinex Sinus-action Pressure, Pain & Congestion; Mucus Congestion and Cough Relief Childrens; Mucus Multi Symptom Cold Relief Childrens; Mucus Relief; Mucus Relief Cold Flu Sore Throat Maximum Strength; Mucus Relief Cold Flu and Sore Throat; Mucus Relief Cold Flu and Sore Throat Max Maximum Strength; Mucus Relief Cold Flu and Sore Throat Maximum Strength; Mucus Relief Cold and SInus Max Maximum Strength; Mucus Relief Cold and Sinus; Mucus Relief Cold and Sinus Maximum Strength; Mucus Relief Cold, Flu and Sore Throat; Mucus Relief Cold, Flu and Sore Throat Maximum Strength; Mucus Relief Cold, Flu, and Sore Throat Maximum Strength; Mucus Relief Congestion and Cough Maximum Strength; Mucus Relief D Immediate Release; Mucus Relief DM MAX Maximum Strength; Mucus Relief Day Time and Night Time; Mucus Relief Daytime/Nighttime; Mucus Relief Daytime/Nighttime/Maximum Strength; Mucus Relief MAXIMUM STRENGTH; Mucus Relief Maximum Strength; Mucus Relief Maximum Strength Multi Symptom Relief; Mucus Relief Maximum Strength Severe Congestion and Cough; Mucus Relief Maximum StrengthCold Flu and Sore Throat; Mucus Relief PE; Mucus Relief PE Sinus Congestion; Mucus Relief Plus; Mucus Relief Severe Cold; Mucus Relief Severe Cold Daytime Maximum Strength; Mucus Relief Severe Congestion Cough Maximum Strength; Mucus Relief Severe Congestion and Cold; Mucus Relief Severe Congestion and Cold Max Maximum Strength; Mucus Relief Severe Congestion and Cough; Mucus Relief Severe Congestion and Cough Maximum Strength; Mucus Relief Severe Cough and Congestion; Mucus Relief Severe Sinus Congestion Maximum Strength; Mucus Relief Sinus; Mucus Relief Sinus Congestion Daytime Nighttime Maximum Strength; Mucus Relief Sinus Day and Night; Mucus Relief Sinus Pressure and Pain; Mucus Relief Sinus Severe Congestion Relief; Mucus Relief cold and sinus; Mucus Relief cold flu and sore throat; Mucus Relief, Cold, Flu and Sore Throat Maximum Strength, Multi-Symptom; Mucus and Sinus PE; Multi Symptom Cold; Multi Symptom Cold CF; Multi Symptom Cold CF Adult; Multi Symptom Cold Childrens; Multi Symptom Cold Childrens Plus; Multi Symptom Cold Double Max Power; Multi Symptom Cold Plus Childrens; Multi Symptom Cold Plus Childrens Pain Relief; Multi Symptom Cold Relief CF Non Drowsy; Multi Symptom Cold Relief Childrens; Multi Symptom Fever and Cold Childrens; Multi Symptom Severe Cold; Multi Symptom Severe Cold and Nighttime Severe Cold and Cough; Multi Sympton Cold Day Night; Multi- Symptom Relief DayTime; Multi-Symptom Allergy; Multi-Symptom Cold; Multi-Symptom Cold Daytime; Multi-Symptom Cold Flu and Sore Throat Maximum Strength; Multi-Symptom Cold Relief; Multi-Symptom Cold Relief Daytime; Multi-Symptom Cold Relief Daytime, Nighttime; Multi-Symptom Cold Severe, Non-Drowsy, Daytime; Multi-Symptom Cold Warming Effect Daytime; Multi-Symptom Cold and Cough Daytime Nighttime; Multi-Symptom Cold and Flu DayTime; Multi-Symptom Cold and Sinus Maximum Strength; Multi-Symptom Daytime Cold; Multi-Symptom Daytime Cold Rapid Release; Multi-Symptom Daytime and Nighttime Cold and Flu Relief Plus; Multi-Symptom Mapap Cold Formula; Multi-Symptom Nighttime Cold; Multi-Symptom Nighttime Sinus Relief; Multi-Symptom Relief Cold and Flu Multi-Symptom Relief; Multi-symptom Daytime; Mydfrin; N - Time Sinus; NEXT COLD and FLU DAYTIME; NIGHT TIME COLD and FLU FORMULA; Nasal; Nasal + Sinus Cold Formula; Nasal Decongestant; Nasal Decongestant Maximum Strength; Nasal Decongestant Non-Drowsy; Nasal Decongestant PE; Nasal Decongestant PE Maximum Strength; Nasal Decongestant PE Maximum Strength Non Drowsy; Nasal Decongestant PE Maximum Strength Non-Drowsy; Nasal Decongestant PE Non Drowsy; Nasal Decongestant PE Non Drowsy Maximum Strength; Nasal Decongestant PE Non-Drowsy Maximum Strength; Nasal Decongestant PE Sinus Congestion Relief Non-Drowsy / Maximum Strength; Nasal Decongestant PE and Pain Relief Maximum Strength; Nasal Decongestant Rhinall; Nasal Four; Nasal and Sinus Decongestant; Nasopen PE; Natureplex Hemorrhoidal; Neo Citran A Powder; Neo Citran Extra Strength; Neo Citran Nutrasweet; Neo Citran Powder; Neo DM DROPS DM; Neo Synephrine Nasal Drop 1%; Neo Tuss Syr; Neo-Synephrine; Neo-Synephrine Cold and Sinus Extra Strength; Neo-Synephrine Cold and Sinus Mild Strength; Neo-Synephrine Cold and Sinus Regular Strength; Neo-Synephrine Extra Strength; Neo-Synephrine Mild Strength; Neo-Synephrine Regular Strength; Neo-synephrine Inj Liq 10mg/ml; Neo-synephrine Liq 1%; Neo-synephrine Nasal Drop 1%; Neocitran Cold & Cough Night; Neocitran Cold & Sore Throat Night; Neocitran Extra Strength Cold & Congestion; Neocitran Extra Strength Cold & Sinus Night; Neocitran Extra Strength Cold & Sinus Night - Apple Cinnamon; Neocitran Extra Strength Total Cold; Neocitran Extra Strength Total Cold Night; Neocitran Thin Strips Daytime Cough and Cold; Neocitran Thin Strips Nighttime Cough and Cold; Neocitran Total Cold; Neocitran Total Cold Night; Next Day Time Non drowsy Cold and Flue; Next Night Severe Cold, Flu and Sore Throat; Nezger Tab; Night Cold Flu Cough and Allergy; Night Relief sinus; Night Time Cold & Flu Liquid; Night Time Cold Max; Night Time Cold Multi-Symptom; Night Time Cold and Cough Childrens; Night Time Cold and Flu Severe; Night Time Cough and Cold Relief; Night Time Day Time Cold and Flu; Night Time Severe Cold and Cough; Night Time Severe Cold and Cough Relief; Night Time Severe Cold and Flu Relief; Night Time Sinus; Night Time Sinus Congestion and Pain; Night Time Sinus Relief; Night Time Sinus and Congestion; Night time sinus; NightRelief DayRelief; NightTime Cold and Cough Children; NightTime Maximum Strength Cold and Flu; NightTime Relief Severe Cold and Flu; NightTime Sinus; NightTime Sinus Relief; Nighttime Cold; Nighttime Cold Head Congestion; Nighttime Cold Max; Nighttime Cold Medicine; Nighttime Cold Multi Symptom Nighttime; Nighttime Cold Multi-Symptom Cool Blast; Nighttime Cold Relief Extra Strength Tablets PE; Nighttime Cold and Flu; Nighttime Cold and Flu Maximum Strength; Nighttime Cold and Flu Relief Plus; Nighttime Cold and Flu Relief Therapy; Nighttime Complete; Nighttime Extra Strength Contac Cold & Sore Throat; Nighttime Extra Strength Contac Complete Cough, Cold & Flu; Nighttime Extra Strength Contac Complete Cough, Cold & Flu Plus Vitamin C; Nighttime Flu Relief Therapy Severe Cold; Nighttime Flu and Severe; Nighttime Multi-Symptom Cold; Nighttime Regular Strength Contac Cold Nasal Congestion; Nighttime SEVERE COLD and FLU; Nighttime Severe; Nighttime Severe Cold and Flu; Nighttime Severe Cold and Flu Relief; Nighttime Severe Cough and Cold; Nighttime Sinus Multi symptom; Nighttime Sinus Relief; Nighttime Sinus and Congestion Relief; Nighttime Symptom Relief Extra Strength for Symptoms Of Cold and Cough; Nighttime severe; Nighttime sinus; Nikzon Hemorrhoidal; Nite Time Cold and Cough; Nite Time Cold and Cough Childrens; Nite Time Cold and Flu; Nite Time Day Time; Nite time Severe Cold and Flu Maximum Strength; NiteTime DayTime Cold and Flu; NiteTime DayTime Severe Cold and Flu; NiteTime Severe Cold and Flu; NiteTime Sinus; NiteTime Sinus Relief; Nitecap Sinus Liquid Gels; Nitetime Cold Relief Extra Strength; Nitetime Cold and Flu; Nitetime Severe Cold and Flu Relief; Nitetime Sinus Relief; Niva-Hist DM; Nivanex DMX; NoHist DM; NoHist LQ; Non Drowsy Cold and Cough PE; Non Drowsy Day Time cold and Flu Relief; Non-Drowsy DayTime Cold and Flu Multi-Symptom Relief; Non-Drowsy Daytime Multi Symptom Cold and Flu Relief; Non-Drowsy Daytime Multi-Symptom Cold and Flu; Non-Drowsy Sinus Daytime; Non-Drowsy Wal-Phed PE Triple Relief; Non-Drying Sinus PE; Non-drowsy Day Time; Non-drowsy Daytime Sinus Relief; Norel AD; NorelCS CS; North Sinus Decongestant; Nose; Notuss PE; Novahistex C; Novahistex Dh; Novahistex Dh Expectorant; Novahistine Decon Liq 5mg/5ml; Novahistine Decongestant - Liq 5mg/5ml; Novahistine Dh; Nu-copd; NyQuil Severe; NyQuil Severe Cold and Flu; Nyquil Sinus Liquicaps; Occu-cal Drops; Occu-cal Lotion; Odan-phenylephrine; Odan-vernacon; Olp Hemorrhoidal Cooling; Omidria; Oral Infant Cold Drops; Otis Clapp Mygrex; Otis Clapp Valihist; Our Family day time severe cold and Cough berry infused with menthol and green tea flavors; Our Family night time severe cold and cough honey lemon infused with chamomile and white tea flavors; PE multi-stymptom cold and cough relief; PRESSURE plus PAIN plus MUCUS; Pain Relief Cold; Pain Relief Cold Multi Symptom; Pain Relief Non Drowsy Daytime; Pain Relief Non-Drowsy, Daytime; Pain Relief Plus; Pain Reliever Fever Reducer; Pain and Sinus Reliever; Panadol Cold and Flu NonDrowsy; Panatuss DXP; Panatuss Pediatric Drops DXP; PediaCare Childrens Allergy and Cold; PediaCare Childrens MultiSymptom Cold; PediaCare Childrens Nighttime Multi Symptom Cold; PediaCare Childrens Plus Flu; PediaCare Childrens Plus Multisymptom Cold; PediaCare Multi Symptom Cold; PediaCare Plus Multisymptom Cold; Pharmacitron; Pharmetapp Elixir; Phenylephrine; Phenylephrine HCl; Phenylephrine Hydrochloride; Phenylephrine Hydrochloride Injection; Phenylephrine Hydrochloride Injection USP; Phenylephrine Hydrochloride Injection USP, 1%; Phenylephrine Hydrochloride Ophthalmic; Phenylephrine/hydroxyethylcellulose; Phenyltrope Oph Soln; Physicians Care Allergy Plus; Physicians Care Cold Cough; Physicians Care Sinus; PhysiciansCare Allergy Multi-Symptom Relief; PhysiciansCare Cold and Cough Non-Drowsy; PhysiciansCare Sinus Non-Drowsy; Pluratuss; Plus Multi Symptom Cold Childrens Pain Relief; Poly Hist Dhc; Poly Hist Forte; Poly Hist Pd; Poly-Hist DM; Poly-Tussin AC; Poly-tussin DM; Poly-tussin EX; Polytussin DM; Preferred Plus Chest Congestion Relief PE; Preferred Plus Childrens Mucus Relief Multi Symptom Cold; Preferred Plus Cold and Flu Night Time; Preferred Plus Congestion Relief; Preferred Plus Day Time Cold and Flu; Preferred Plus Hemorrhoid; Preferred Plus Hemorrhoidal; Preferred Plus Mucus Relief; Preferred Plus Mucus Relief Cold and Sinus; Preferred Plus Severe Cold; Preferred Plus Severe Cold Cough and Flu; Preferred Plus Severe Cold Day Time Cold and Flu Night Time; Preferred Plus Severe Day Time; Preferred Plus Severe Nite Time; Preferred Plus Severe Sinus Congestion; Preferred Plus Sinus Relief; Preferred Plus Sinus Relief Day Tiime Night Time; Prefrin A Liq; Prefrin Liq 0.12%; Premier Value Chest and Sinus Congestion relief; Premier Value Hemorrhoidal; Premier Value Multi-Symptom Severe Cold Green Tea and Honey Lemon flavors; Premier Value day time severe cold and cough berry infused with menthol and green tea flavors; Premier Value night time severe cold and cough honey lemon infused with chamomile and white tea flavors; Preparation H; Preparation H Cooling Gel; Preparation H Maximum Strength; Preparation H Totables Burning Relief; Preparation H Totables Pain Relief; Presgen; Presgen B; Presgen Pediatric; Pressure Pain Cold PE; Pressure Pain Cough PE; Pressure Pain Mucus PE; Pressure Plus Pain PE; Pressure Plus Pain PE Plus Cold; Pressure and Pain PE; Pressure and Pain PE Plus Cold; Pressure and Pain PE Plus Mucus; Pressure and Pain PE plus Cough; Pressure and Pain and Cold; Pressure plus Pain PE; Pressure plus Pain PE plus Cough; Pressure plus Pain PE plus Mucus; Pressure plus Pain plus Mucus Non-Drowsy; Pro-chlo; Pro-red Ac; Promethazine HCl, Phenylephrine HCl, Codeine Phosphate; Promethazine Hydrochloride Phenylephrine Hydrochloride and Codeine Phosphate; Promethazine Hydrochloride and Phenylephrine Hydrochloride; Promethazine Hydrochloride, Phenylephrine Hydrochloride and Codeine Phosphate; Promethazine VC; Promethazine VC With Codeine; Promethazine VC with Codeine; Promethazine Vc With Codeine; Promethazine hydrochloride and phenylephrine hydrochloride; Pseudo Time PE; Pseudo-free PE Maximum Strength, Non-drowsy; Pulmorphan; Pulmorphan Pediatrique; Pyrilamine Maleate and Phenylephrine Hydrochloride; Pyrilamine-Phenylephrine; Quality Choice Cold and Sore Throat Lemon Flavor; Quality Choice Daytime Severe Cold and Cough Berry infused with Menthol and Green Tea flavors; Quality Choice Effervescent Cold Relief Plus; Quality Choice Hemorrhoidal; Quality Choice Mucus Relief PE PE; Quality Choice Multi-Symptom, Non-Drowsy DayTime Cold and Flu; Quality Choice Nighttime Severe Cold and Cough Honey Lemon infused with Chamomile and White Tea Flavors; Quality Choice day time severe cold and cough berry infused with menthol and green tea flavors; Quality Choice night time severe cold and cough honey lemon infused with chamomile and white tea flavors; R-Tanna; R-Tanna Pediatric Suspension; Rapid Action Cold; Rapid Max Maximum Strength Cool and Clear - Cold, Flu and Sore throat; Rapid Max Maximum Strength Cool and Clear - Cold, Severe Congestion and Cough; Rapid Release Multi-Symptom Allergy Relief; Ratio-coristex-DH; Rectalin Hemorrhoidal Suppositories; RectiCare Complete; Recticare Advanced; Reese ONETAB Congestion and cough; Reeses Onetab Allergy and Sinus; Reeses Onetab Cold and Flu; Refenesen Chest Congestion Relief PE; Refenesen Chest Congestion Relief pe; Regular Strength Tylenol Cold Daytime; Regular Strength Tylenol Cold Nighttime; Regular Strength Tylenol Sinus Daytime; RelCof DM; RelCof IR; Relhist BP; Relhist DMX; Relief-PE; Rescon GG; Rexall Daytime Nighttime Cold Flu; Rexall Daytime Nighttime Cold and Flu; Rexall Hemorrhoidal; Rexall Hemorrhoidal Cooling; Rexall Maximum Strength Hemorrhoidal; Rhume Et De LA Grippe (extra-fort); Rhume Extra Fort Jour; Rhume Extra Fort Nuit; Rite Aid Daytime Severe Cold and Cough Relief; Rite Aid Nighttime Severe Cold and Cough Relief; Rite Aid day time severe cold and cough berry infused with menthol and green tea flavors; Rite Aid night time severe cold and cough honey lemon with chamomile and white tea flavors; Riteaid Hemorrhoidal Cooling; Robafen CF Cough and cold; Robitussin Children's Cold; Robitussin Children's Cough & Cold Bedtime; Robitussin Complete Daytime; Robitussin Night Time Cough and Cold; Robitussin Peak Cold Daytime Cold Plus Flu; Robitussin Peak Cold Maximum Strength Multi-symptom Cold; Robitussin Peak Cold Multi-Symptom Cold; Robitussin Peak Cold Nasal Relief; Robitussin Peak Cold Nighttime Multi-symptom Cold; Robitussin Peak Cold Nighttime Nasal Relief; Robitussin Severe Multi-Symptom Cough Cold Flu; Robitussin Severe Multi-Symptom Cough Cold Flu Nighttime; Robitussin To Go Cough and Cold CF; Rompe Pecho CF; Rompe Pecho Max Multi Symptoms; Rompe Pecho SF FLU; Ru-Hist D; Ru-hist Plus; Ru-hist-D; Rugby Congestion Relief; Rugby Hemorrhoidal; Runny Nose and Cough; Rx Act Cold Head Congestion; Rx Act Cold and Allergy Childrens; Rx Act Flu and Severe Cold and Cough Nighttime; Rx Act Flu and Sore Throat; Rx Act Flu and severe cold and cough daytime; Rx Act Hemorrhoidal; Rx Act Nasal Decongestant PE Non Drowsy Maximum Strength; Rx Act Tussin CF Cough and Cold; Rx Act nasal four; Rx Act sinus and allergy PE; Rx Act sinus congestion and pain; Rycontuss Cherry Flavor; Rymed; Rynex DM; SMITH BROS NIGHT TIME COUGH and CONGESTION; SMITH BROS NON-DROWSY DAY TIME COLD and FLU; SMITH BROS NON-DROWSY MULTI-SYMPTOM COLD and FLU; SUDAFED PE Pressure PLUS Pain PLUS Mucus; SUDAFED PE Pressure Plus Pain; Safeway Daytime Cold and Flu Relief; SanaTos COLD Multi-Symptom; SanaTos Severe Cold and Cough Day Time; SanaTos Severe Cold and Cough Nighttime; Sanaflu Xtra; Sanatos Day; Scot-Tussin Original Multi-Symptom Cold and Allergy Relief; Scot-Tussin Original SF Multi-Symptom; Select Brand Hemorrhoid; Select Brand Mucus Relief PE; Sever Daytime Cold and Flu and Sever Nighttime Cold and Flu; Severe Allergy And Sinus Headache; Severe Allergy And Sinus Headache Maximum Strength; Severe Allergy Plus Sinus Headache; Severe Allergy Plus Sinus Headache Maximum Strength; Severe Allergy Relief Plus Sinus Headache; Severe Cold; Severe Cold Cough and Flu; Severe Cold Cough and Flu Relief Daytime; Severe Cold Cough and Flu Relief Nighttime; Severe Cold Daytime Cold and Flu Nighttime; Severe Cold Daytime Multi-Symptom Non-Drowsy; Severe Cold Head Congestion; Severe Cold Multi Symptom; Severe Cold Multi-Symptom; Severe Cold PE; Severe Cold PE Multi-Symptom; Severe Cold Plus Flu Daytime Nighttime; Severe Cold Relief; Severe Cold Relief PE; Severe Cold and Cough Daytime; Severe Cold and Cough Night Time; Severe Cold and Cough Relief Daytime; Severe Cold and Cough Relief Nighttime; Severe Cold and Flu; Severe Cold and Flu Daytime; Severe Cold and Flu Daytime/nighttime; Severe Cold and Flu Maximum Strength, Daytime, Non-Drowsy; Severe Cold and Flu Night time; Severe Cold and Flu Nighttime Daytime; Severe Cold and Flu Relief; Severe Cold and Flu Relief Nighttime; Severe Cold and Flu nighttime; Severe Cold and Mucus; Severe Cold, Cold and Flu Daytime, Nighttime, Maximum Strength; Severe Cold, Cold and Flu Maximum Strength, Daytime, Nightime; Severe Congestion Relief Maximum Strength Sinus; Severe Congestion and Cold Maximum Strength; Severe Congestion and Cold Maximum Strength/ Multi-Symptom; Severe Congestion and Cold Relief Maximum Strength, Multi Symptom; Severe Congestion and Cough; Severe Congestion and Cough MAX Maxium Strength; Severe Congestion and Cough Multi-Symptom Maximum Strength; Severe Congestion and Cough Relief; Severe Congestion and Cough Relief Maximum Strength; Severe Congestion and Cough, Cold and Flu Daytime and Nighttime; Severe Congestion and Cough, Cold and Flu Daytime, Nighttime; Severe Congestion and Cough/ Cold and Flu Daytime/nighttime; Severe Congestion and Cough/Cold and Flu Daytime/Nighttime/Maximum Strength; Severe Cough and Cold; Severe Daytime; Severe Multi-Symptom Cold; Severe Nighttime; Severe Nighttime Cold and Flu; Severe Nighttime Severe Daytime; Severe Sinus; Severe Sinus Congestion; Severe Sinus Congestion Allergy and Cough Formula; Severe Sinus Congestion Relief Maximum Strength; Severe Sinus Congestion and Pain; Severe Sinus Congestion and Pain Daytime; Severe Sinus Congestion and Pain Non-Drowsy, Daytime; Severe Sinus Daytime, Non-Drowsy; Severe Sinus Pain and Congestion Daytime; Severe Wal Tussin CF Max; Severe cold and cough relief; Severe cold and flu Nighttime; Severe sinus Congestion Relief; ShopRight Childrens Nighttime Cold and Cough; ShopRite Adult Tussin; ShopRite Allergy; ShopRite Childrens Cold and Allergy; ShopRite Childrens Cold and Cough; ShopRite Childrens Multi Symptom Cold Relief; ShopRite Cold Multi Symptom; ShopRite Day Calm; ShopRite Day Calm Severe; ShopRite DayTime Flu Plus Severe Cold And Cough; ShopRite Hemorrhoidal; ShopRite Nasal Decongestant PE; ShopRite Nighttime Flu Plus Severe Cold and Cough; ShopRite Severe Cold; Shopko Hemorrhoidal; Shoprite Congestion and Pain; Shoprite Day Calm Severe; Shoprite Hemorrhoidal; Shoprite Nasal Four; Shoprite Ni Calm; Shoprite Sinus Congestion and Pain; Signature Care Childrens Cold and Cough; Signature Care Hemorrhoidal; Signature Care Nighttime Severe Cold and Flu Relief; Signature Care Non drowsy Daytime Severe Cold and Flu Relief; Signature Care daytime nighttime severe cold and flu relief; Signature Care severe cold cough and flu Nighttime; Sildec PE DM; Sine Off Maximum Strength; Sine Off Sinus/cold Medicine; Sine-EEz; Sinex; Sinex Daytime Sinus; Sinex Nighttime Sinus; Sinu-Phen; Sinu-Phen Plus; Sinus; Sinus Congestion And Pain Daytime; Sinus Congestion PE; Sinus Congestion and Pain; Sinus Congestion and Pain Day, Non-Drowsy; Sinus Congestion and Pain Daytime; Sinus Congestion and Pain Daytime Nighttime; Sinus Congestion and Pain Daytime Non Drowsy; Sinus Congestion and Pain Daytime Non-Drowsy; Sinus Congestion and Pain Daytime Non-Drowsy Severe; Sinus Congestion and Pain Daytime, Non-drowsy; Sinus Congestion and Pain Daytime/Nighttime; Sinus Congestion and Pain Nighttime; Sinus Congestion and Pain Non Drowsy; Sinus Congestion and Pain Non-Drowsy; Sinus Congestion and Pain Non-Drowsy, Daytime; Sinus Congestion and Pain Relief; Sinus Congestion and Pain Relief Non-Drowsy; Sinus Congestion and Pain Relief Non-Drowsy, Daytime; Sinus Congestion and Pain Relief Non-Drowsy/Daytime; Sinus Congestion and Pain Severe; Sinus Congestion and Pain Severe Daytime,Non-Drowsy; Sinus Congestion and Pain daytime nighttime; Sinus Daytime; Sinus Extra Fort Jour; Sinus Extra Fort Nuit; Sinus Headache Maximum Strength; Sinus Headache PE; Sinus Headache PE Maximum Strength; Sinus Headache PE Non- Drowsy Maximum Strength; Sinus Headache PEMaximum Strength Non-Drowsy Maximum Strength Non-Drowsy; Sinus Headache and Pain Day, Non-drowsy; Sinus Medication; Sinus Medication Day Regular Tablets PE; Sinus Nighttime; Sinus PE Decongestant; Sinus PE Decongestant Maximum Strength; Sinus PE Pressure plus Pain MAXIMUM STRENGTH; Sinus PE Pressure, Pain and Cold Daytime, Non-Drowsy; Sinus PE Pressure, Pain and Mucus; Sinus PE Pressure, Pain plus Cough Multi-Symptom; Sinus PE plus Allergy Maximum Strength; Sinus Pain; Sinus Pain and Congestion; Sinus Pain and Congestion Daytime; Sinus Pain and Congestion Nighttime; Sinus Pressure Maximum Strength; Sinus Pressure Pain Maximum Strength, Non-Drowsy; Sinus Pressure and Congestion Relief PE Maximum Strength; Sinus Pressure and Pain; Sinus Pressure and Pain Maximum Strength; Sinus Pressure and Pain PE Maximum Strength; Sinus Pressure and Pain Relief extra strength; Sinus Relief; Sinus Relief Congestion and Cough Maximum Strength; Sinus Relief Congestion and Pain - Daytime and Nighttime; Sinus Relief Congestion and Pain Daytime; Sinus Relief Congestion and Pain Nighttime; Sinus Relief Congestion and Pain Severe; Sinus Relief Daytime; Sinus Relief Daytime Nighttime; Sinus Relief Daytime, Nighttime, Maximum Strength; Sinus Relief Headache Nasal; Sinus Relief MAXIMUM STRENGTH; Sinus Relief Maximum Strength; Sinus Relief Maximum Strength Daytime and Nighttime Sinus Pain; Sinus Relief Non Drowsy; Sinus Relief Non-Drowsy Daytime; Sinus Relief PE Maxium Strength; Sinus Relief Severe Congestion; Sinus Relief Severe Congestion Maximum Strength; Sinus Severe; Sinus Severe Daytime; Sinus and Allergy; Sinus and Allergy Maximum Strength; Sinus and Allergy PE; Sinus and Allergy PE Maximum Strength; Sinus and Allergy PE maximum strength; Sinus and Allergy Releif PE; Sinus and Allergy Relief; Sinus and Allergy Relief PE; Sinus and Congestion Relief Daytime; Sinus and Headache; Sinus and Headache Daytime; Sinus and Headache Daytime, Non-Drowsy; Sinus plus Headache Daytime and Nighttime; Sinutab PE Extra Strength; Sinutab PE Nd Extra Strength; Sinutab PE Nd Regular Strength; Sinutab PE Nightime; Sinutab PE Sinus and Allergy; Skopko Chest Congestion Relief PE PE; Smart Sense Adults Tussin CF Multi Symptom Cold; Smart Sense Childrens Multi Symptom Cold Relief; Smart Sense Childrens Nighttime Cold and Cough; Smart Sense Cold and Allergy Childrens; Smart Sense Cold and Cough; Smart Sense DayTime; Smart Sense Daytime; Smart Sense Daytime Nighttime Cold and Flu; Smart Sense Flu and Severe Cold and Cough Daytime; Smart Sense Flu and Severe Cold and Cough Nighttime; Smart Sense Hemorrhoidal; Smart Sense Multi Symptom Cold; Smart Sense Multi Symptom Fever and Cold Childrens; Smart Sense NightTime DayTime; Smart Sense Severe Cold; Smart Sense Severe Cold and Flu NightTime; Smart Sense Sinus; Smart Sense Sinus PE; Smart Sense Sinus Relief; Smart Sense Sinus and Headache; Smart Sense Triacting; Smart Sense Tussin CF Adult; Smart Sense cold flu and sore throat; Smart Sense daytime cold and flu; Smart Sense nasal decongestant pe maximum strength; Smart Sense nighttime cold and flu; Smart Sense sinus plus headache; Smart sense Nighttime Severe Cold and Cough Honey Lemon infused with Chamomile and White Tea Flavors; Soframycin Nasal Spray; SohMed Allergy Sinus; SohMed Cold Relief; SohMed Sinus; Sound Body Cold and Flu Relief; Sound Body Cold and Flu Relief DayTime; Sound Body Tussin CF; Stona; Stona Cough; Stona-S; Stonarhini; Su Phedrine PE Non-drowsy, Maximum Strength; Sudafed PE Cold and Cough; Sudafed PE Cold and Flu Caplets; Sudafed PE Congestion; Sudafed PE Day Plus Night Sinus Congestion; Sudafed PE Extra Strength; Sudafed PE Head Cold & Sinus; Sudafed PE Pressure Plus Pain Plus Cold; Sudafed PE Pressure plus Pain plus Cough; Sudafed PE Regular Strength; Sudafed PE Total; Sudafed Total Cold and Flu Rapid Release; Sudo-Tab PE; Sudogest PE; Sunmark Allergy Multi Symptom; Sunmark Chest Congestion Relief PE PE; Sunmark Cold Head Congestion; Sunmark Cold and Allergy; Sunmark Cold and Allergy Childrens; Sunmark Cold and Cough DM Childrens; Sunmark Cold and Flu Severe; Sunmark Day Time Cold and Cough Childrens Triacting Formula; Sunmark Day time cold and flu; Sunmark Hemorrhoidal; Sunmark Nasal Decongestant PE Maximum Strength; Sunmark Nasal Fast Relief; Sunmark Nose; Sunmark Sinus and Allergy PE Maximum Strength; Sunmark Tussin CF; Sunmark cold head congestion; Sunmark sinus congestion and pain; Super Strength Contac Cold & Sinus Hot Medicated Drink; Suphedrine PE; Suphedrine PE Congestion; Suphedrine PE Congestion Non-Drowsy; Suphedrine PE Pressure plus Pain Maximum Strength, Non-Drowsy; Suphedrine PE Sinus plus Allergy; Supress A; Supress DX Pediatric Drops; Supress-PE Pediatric; Swift Sinus Pain; TUSSIN CF NIGHTTIME COUGH and COLD; TYLENOL Cold Multi-Symptom Daytime; TYLENOL Cold Multi-Symptom Severe; TYLENOL Cold Plus Flu Severe; TYLENOL Cold Plus Mucus Severe; TYLENOL Sinus Congestion And Pain Severe; Tabcin 500; Tantapp Elixir; TexaClear Kids Cold Relief; TexaClear Kids Cough and Cold; TexaClear Kids Sinus Relief; Texaclear Congestion and Pain Sinus Relief; Texaclear Daytime Cough Cold/flu; Texaclear Night Time Cough Cold/flu; TheraPlus Plus; Theraflu Cold and Flu; Theraflu Cold and Sore Throat; Theraflu Daytime Cold and Flu; Theraflu Daytime Severe Cold and Cough; Theraflu ExpressMax Daytime Nighttime Value Pack; Theraflu ExpressMax Daytime Severe Cold and Cough; Theraflu ExpressMax Flu, Cough, and Sore Throat; Theraflu ExpressMax Nighttime Severe Cold and Cough; Theraflu ExpressMax Severe Cold and Flu Caplets; Theraflu ExpressMax Severe Cold and Flu Syrup; Theraflu Expressmax Daytime Severe Cold and Cough and Theraflu Expressmax Nighttime Severe Cold and Cough; Theraflu Flu and Sore Throat; Theraflu Multi Symptom Severe Cold; Theraflu Nighttime Cold and Flu; Theraflu Nighttime Multi-Symptom Severe Cold Powder; Theraflu Nighttime Severe Cold and Cough; Theraflu Sinus and Cold; Theraflu Sugar Free Nightime Severe Cold and Cough; Theraflu Warming Relief Cold and Chest Congestion; Theraflu Warming Relief Daytime Multi-Symptom Cold Caplets; Theraflu Warming Relief Daytime Severe Cold And Cough; Theraflu Warming Relief Flu and Sore Throat; Theraflu Warming Relief Nighttime Multi-Symptom Cold Caplets; Theraflu Warming Relief Nighttime Severe Cold And Cough; Toa Syrup Adult; Top Care Day Time Multi Symptom Relief; Top Care Flu and Sore Throat; Top Value Effervescent Cold Relief; TopCare Cold Max; TopCare Cold NightTime Multi Symptom; TopCare Cold and Sore Throat Lemon Flavor; TopCare Daytime Severe Cold and Cough Berry infused with Menthol and Green Tea flavors; TopCare Mucus Relief and Cold and Flu; TopCare Multi Symptom Severe Cold; TopCare Nasal Decongestant PE; TopCare Nighttime Severe Cold and Cough honey lemon infused with chamomile and white tea flavors; TopCare Pain Relief Cold Nightttime; TopCare Sinus and Allergy PE Maximum Strength; TopCare day time severe cold and cough berry infused with menthol and green tea flavors; TopCare night time severe cold and cough honey lemon infused with chamomile and white tea flavors; Topcare Allergy Multi Symptom; Topcare Childrens Cold and Allergy; Topcare Childrens Mucus Relief Multi Symptom Cold; Topcare Childrens Triacting Nightime Cold and Cough; Topcare Clear Time; Topcare Cold; Topcare Cold Head Congestion; Topcare Cold Head Congestion Nighttime; Topcare Cold Head Congestion Severe; Topcare Cold Multi Symptom; Topcare Cold Multi Symptom Severe; Topcare Cold and Allergy; Topcare Cold and Cough; Topcare Cold and Flu; Topcare Cold and Flu Night Time; Topcare Cold and Sore Throat Lemon Flavor; Topcare Congestion Relief; Topcare Day Time; Topcare Day Time Cold and Flu; Topcare Day Time Cold and Flu Relief Multi Symptom Relief; Topcare Day Time Cold and Flu Severe; Topcare Day Time Nite Time; Topcare Day Time Nite Time Cold and Flu; Topcare Day Time Nite Time Cold and Flu Relief; Topcare Day time cold and flu relief; Topcare DayTime; Topcare Daytime Nighttime Clear Time; Topcare Flu and Severe Cold and Cough; Topcare Flu and Severe Cold and Cough Daytime; Topcare Hemorrhoidal; Topcare Hemorrhoidal Cooling; Topcare Mucus Relief Cold Flu and Sore Throat; Topcare Mucus Relief Severe Congestion and Cold; Topcare Mucus Relief cold and sinus; Topcare Nasal Four; Topcare Nite Time Cold and Flu; Topcare Nite Time Day Time Cold and Flu; Topcare Nite Time Day Time Cold and Flu Relief; Topcare Nose Drops; Topcare Severe Sinus Congestion; Topcare Sinus Congestion and Pain; Topcare Sinus Relief; Topcare Sinus Relief Day Time Night Time; Topcare Tussin CF; Topcare Tussin CF Max; Topcare childrens cold and cough; Topcare hemorrhoidal; Topcare mucus relief; Topcare mucus relief cold flu and sore throat; Topcare sinus relief pressure and pain; Topco tussin cf max; Triacting Day Time Cold and Cough Childrens; Triacting Day Time with PE; Triacting Daytime Cold Cough Childrens; Triacting Night Time; Triacting Night Time Cold and Cough; Triaminic Chest and Nasal Congestion; Triaminic Childrens Cold and Allergy; Triaminic Childrens Night Time Cold and Cough; Triaminic Cold and Allergy; Triaminic Day - Night Club Pack; Triaminic Day Time Cold and Cough; Triaminic Daytime Cough & Cold; Triaminic Multi-Symptom Fever and Cold; Triaminic Night Time Cold and Cough; Triaminic Nighttime Cough and Cold; Triaminic Thin Strips Cold & Cough; Triaminic Thin Strips Nasal Congestion; Triaminic Thin Strips Nighttime Cold & Cough; Triaminic Toddler Congestion Thin Strips; Triaminic Toddler Cough and Cold Thin Strips; Tukol A; Tukol Cough and Congestion; Tukol MAX ACTION Cold, Sore Throat and Cough; Tukol MAX ACTION Severe Congestion and Cough; Tukol Max Action Cold Sore Throat and Cough; Tukol Max Action Severe Congestion and Cough; Tukol Multi Symptom Cold; Tukol X-Pecto Miel Multi Symptom Cold; Tusicof; Tussi Pres; Tussi Pres B; Tussi Pres Pediatric; Tussin; Tussin CF; Tussin CF Adult; Tussin CF Adult Cough and Cold; Tussin CF Adult Maximum Strength; Tussin CF Adult Multi Symptom Cold; Tussin CF Adult Non Drowsy; Tussin CF Cough and Cold; Tussin CF Dextromethorphan HBr, Guaifenesin, Phenylephrine HCL; Tussin CF Max; Tussin CF Maximum Strength; Tussin CF Multi Symptom Cold Adult; Tussin CF Multi-Symptom Cold; Tussin CF Non Drowsy; Tussin CF Non Drowsy Multi Symptom; Tussin Maximum Strength; Tussin Multi Symptom; Tussin Multi Symptom Cold CF; Tussin Multi Symptom Cold CF Adult; Tusslin; Tusslin Pediatric; Tusslin TR; Tussnex FM Cold and Sinus; Tussnex FM Cold, Flu and Sore Throat; Tussnex FM Severe cough and congestion; Tylenol Allergy; Tylenol Cold Max Day; Tylenol Cold Max Night; Tylenol Cold Multi-symptom; Tylenol Cold Multi-symptom Daytime; Tylenol Cold Nightime Rapid Release; Tylenol Cold Plus Flu Severe; Tylenol Cold Plus Flu Severe Day/night; Tylenol Cold Plus Head Congestion Severe; Tylenol Cold Rapid Release; Tylenol Cold and Flu Daytime; Tylenol Cold and Flu Nighttime; Tylenol Cold plus Flu Severe and Tylenol Cold Max; Tylenol Complete Cold, Cough & Flu Daytime; Tylenol Complete Cold, Cough & Flu Nighttime; Tylenol Flu Daytime; Tylenol Flu Nighttime; Tylenol Sinus Congestion and Pain Daytime; Tylenol Sinus Daytime; Tylenol Sinus Nighttime; Tylenol Sinus Plus Headache Day; Tylenol Sinus Severe; Up and Up Adult Cough and Cold; Up and Up Childrens Cold and Cough; Up and Up Childrens Cold and Cough Relief; Up and Up Cold Flu Relief; Up and Up Cold Flu Relief Day Night; Up and Up Cold Flu Relief Multi Symptom Day; Up and Up Cold Relief; Up and Up Cold and Flu Relief Multi Symptom Day and Night Combo Pack; Up and Up Cold and Head Congestion; Up and Up Daytime Cold and Flu; Up and Up Daytime Nighttime Cold and Flu; Up and Up Daytime Severe Cold Nighttime Cold and Flu; Up and Up Fast Mucus Relief Severe Cold; Up and Up Flu and Severe Cold and Cough Relief; Up and Up Hemorrhoidal; Up and Up Mucus Relief; Up and Up Mucus Relief Cold Flu and Sore Throat; Up and Up Mucus Relief Cold and Sinus; Up and Up Mucus Relief Severe Congestion and Cold; Up and Up Nighttime Daytime Cold and Flu; Up and Up Nighttime Flu and Severe Cold and Cough; Up and Up Sinus Congestion and Pain; Up and Up Sinus PE; Up and Up Tussin Multi Symptom Cold Maximum Strength; Up and Up maximum Strength fast mucus relief Severe Congestion and Cough; Up and Up mucus relief cold, flu and sore throat; Up and Up mucus relief severe congestion and cough; Up and Up nasal decongestant PE; Up and Up severe cold and flu; Up and Up severe cold and flu daytime; VanaTab DM; Vanacof DM; Vasosulf Oph Soln; Vazculep; Vazobid-PD; Vicks Custom Care Nasal Congestion/cough; Vicks DayQuil Cold and Flu; Vicks DayQuil Cold and Flu Multi-Symptom Relief; Vicks DayQuil Severe Cold and Flu; Vicks DayQuil Tropical and Vicks NyQuil Cherry Cough; Vicks DayQuil and Vicks NyQuil Cherry Cold and Flu; Vicks DayQuil and Vicks NyQuil Cold and Flu; Vicks DayQuil and Vicks NyQuil Cold and Flu Multi-Symptom Relief/Cold and Flu Nighttime Relief; Vicks DayQuil and Vicks NyQuil Severe Cold and Flu; Vicks Dayquil Cold & Flu Multi-symptom Relief Liquicaps; Vicks Dayquil Complete Cold & Flu Caplets; Vicks Dayquil Complete Cold & Flu Liquid; Vicks Formula 44 Cough and Head Congestion; Vicks NyQuil Severe Cold and Flu; Vicks Nyquil Complete Cold & Flu; Vicks Nyquil Complete Cold & Flu Caplets; Vicks QlearQuil Daytime Sinus and Congestion; Vicks QlearQuil Daytime Sinus and Congestion and Nighttime Sinus and Congestion; Vicks QlearQuil Nighttime Sinus and Congestion; Vicks Sinex; Wal Flu Flu and Sore Throat; Wal Flu Severe Cold and Cough; Wal Flu Severe Cold and Cough Daytime; Wal Four; Wal Tap Elixir Childrens; Wal Tussin Adult Cough and Cold; Wal Tussin CF Cough and Cold; Wal Tussin CF Max; Wal Tussin CF Max Multi Symptom Cough Cold and Flu; Wal-Dryl Allergy Plus Cold; Wal-Dryl Maximum Strength; Wal-Dryl PE Allergy and Sinus; Wal-Dryl-D; Wal-Phed PE; Wal-Phed PE Maximum Strength; Wal-Phed PE Maximum Strength, Non-Drowsy; Wal-Phed PE Multi Symptom; Wal-Phed PE Non-Drying Sinus; Wal-Phed PE Pressure plus Pain Maximum Strength Non-Drowsy; Wal-Phed PE Pressure plus Pain plus Cold Daytime, Nighttime, Multi-Symptom; Wal-Phed PE, Multi-Symptom; Wal-Phed PE, Multi-Symptom, Non-Drowsy; Walgreens Daytime Nighttime Wal-Flu Severe Cold and Cough Kit; Walgreens Daytime Wal-Flu Severe Cold and Cough Berry infused with Menthol and Green Tea flavors; Walgreens Daytime non-drowsy cold multi-symptom for adults; Walgreens Maximum Strength Hemorrhoidal; Walgreens Severe Cold Multi-Symptom For Adults; Walgreens Severe Warming Cold and Flu For Adults; Walgreens Sugar Free Nighttime Wal-Flu severe cold and cough Natural honey lemon flavor; Walgreens Wal-Flu Cold and Sore Throat Lemon Flavor; Walgreens night time wal-flu severe cold and cough honey lemon flavor infused with chamomile and white tea flavors; Walprofen Congestion Relief and Pain; Welby Day Time Cold and Flu; Well At Walgreens Multi-Symptom Severe Cold Green Tea and Honey Lemon flavors; Well at Walgreens Multi-Symptom Wal-Flu Severe Cold and Nighttime Wal-Flu Severe Cold and Cough Kit; Western Family Daytime Severe Cold and Cough Berry infused with Menthol and Green Tea flavors; Western Family Hemorrhoidal; Western Family Nighttime Severe Cold and Cough honey lemon infused with chamomile and white tea flavors; WinCo Foods Daytime Severe Cold and Cough Berry infused with Menthol and Green Tea flavors; WinCo Foods Effervescent Cold Relief; WinCo Foods Nighttime Severe Cold and Cough honey lemon infused with chamomile and white tea flavors; Winco Foods Multi-Symptom Severe Cold Green Tea and Honey Lemon flavors; Winco Hemorrhoidal; Xl3 Xtra; Xpecto soothing relief; Zincfrin; Zotex-C; allergy sinus PE; childrens Multi Symptom Fever and Cold; cold and cough sinus relief PE NON-DROWSY; diaCare Childrens Decongestant; good sense DayTime Night Time; healthy accents cold and cough DM; hybrid CF; lidoForte Hemorrhoidal; multi-symptom cold relief Daytime, Nighttime; severe cold and sinus relief PE; sinus PE; sinus plus allergy PE maximum strength; sunmark Cold; topcare Hemorrhoidal; topcare tussin CF; tussin severe multi symptom cough cold plus flu CF MAX

>  <SALTS>  (1) 
Phenylephrine bitartrate; Phenylephrine hydrochloride; Phenylephrine tannate

>  <SECONDARY_ACCESSION_NUMBERS>  (1) 
APRD00365

>  <SMILES>  (1) 
CNC[C@H](O)C1=CC(O)=CC=C1

>  <SYNONYMS>  (1) 
(-)-m-Hydroxy-Î±-(methylaminomethyl)benzyl alcohol; Fenilefrina; l-(3-Hydroxyphenyl)-N-methylethanolamine; Phenylephrinum; R(-)-Phenylephrine

$$$$
