3000502
     RDKit          2D

181183  0  0  1  0  0  0  0  0999 V2000
    3.3009    0.0000    0.0000 O   0  0  0  0  0  0  0  0  0  0  0  0
    3.3009   11.3935    0.0000 O   0  0  0  0  0  0  0  0  0  0  0  0
    6.1588    0.8250    0.0000 O   0  0  0  0  0  0  0  0  0  0  0  0
    6.1588   12.2185    0.0000 O   0  0  0  0  0  0  0  0  0  0  0  0
    0.4430    2.4751    0.0000 O   0  0  0  0  0  0  0  0  0  0  0  0
    0.4430   13.8686    0.0000 O   0  0  0  0  0  0  0  0  0  0  0  0
    5.1424    4.0145    0.0000 O   0  0  0  0  0  0  0  0  0  0  0  0
    5.1424   15.4080    0.0000 O   0  0  0  0  0  0  0  0  0  0  0  0
    2.5864    4.5376    0.0000 O   0  0  0  0  0  0  0  0  0  0  0  0
    1.1575    4.5376    0.0000 O   0  0  0  0  0  0  0  0  0  0  0  0
    2.5864   15.9311    0.0000 O   0  0  0  0  0  0  0  0  0  0  0  0
    4.0154    6.1876    0.0000 O   0  0  0  0  0  0  0  0  0  0  0  0
    4.0154   17.5811    0.0000 O   0  0  0  0  0  0  0  0  0  0  0  0
    7.5879    3.3001    0.0000 O   0  0  0  0  0  0  0  0  0  0  0  0
    7.5879   14.6936    0.0000 O   0  0  0  0  0  0  0  0  0  0  0  0
    5.1101    2.1560    0.0000 N   0  0  0  0  0  0  0  0  0  0  0  0
    5.1101   13.5495    0.0000 N   0  0  0  0  0  0  0  0  0  0  0  0
    4.7299    0.8250    0.0000 N   0  0  0  0  0  0  0  0  0  0  0  0
    4.7299   12.2185    0.0000 N   0  0  0  0  0  0  0  0  0  0  0  0
    4.8619    3.5633    0.0000 N   0  0  0  0  0  0  0  0  0  0  0  0
    4.8619   14.9568    0.0000 N   0  0  0  0  0  0  0  0  0  0  0  0
    2.5864    1.2375    0.0000 N   0  0  0  0  0  0  0  0  0  0  0  0
    2.5864   12.6310    0.0000 N   0  0  0  0  0  0  0  0  0  0  0  0
    5.9226    3.5633    0.0000 N   0  0  0  0  0  0  0  0  0  0  0  0
    5.9226   14.9568    0.0000 N   0  0  0  0  0  0  0  0  0  0  0  0
    4.7299    2.4751    0.0000 N   0  0  0  0  0  0  0  0  0  0  0  0
    1.8720    2.4751    0.0000 N   0  0  0  0  0  0  0  0  0  0  0  0
    4.7299   13.8686    0.0000 N   0  0  0  0  0  0  0  0  0  0  0  0
    1.8720   13.8686    0.0000 N   0  0  0  0  0  0  0  0  0  0  0  0
    0.4430    0.8250    0.0000 N   0  0  0  0  0  0  0  0  0  0  0  0
    3.3009    3.3001    0.0000 N   0  0  0  0  0  0  0  0  0  0  0  0
    0.4430   12.2185    0.0000 N   0  0  0  0  0  0  0  0  0  0  0  0
    3.3009   14.6936    0.0000 N   0  0  0  0  0  0  0  0  0  0  0  0
    4.7299    4.9501    0.0000 N   0  0  0  0  0  0  0  0  0  0  0  0
    4.7299   16.3436    0.0000 N   0  0  0  0  0  0  0  0  0  0  0  0
    6.1588    7.4252    0.0000 N   0  0  0  0  0  0  0  0  0  0  0  0
    6.1588   18.8187    0.0000 N   0  0  0  0  0  0  0  0  0  0  0  0
    6.8734    2.0625    0.0000 N   0  0  0  0  0  0  0  0  0  0  0  0
    6.8734   13.4560    0.0000 N   0  0  0  0  0  0  0  0  0  0  0  0
    4.0154    9.4877    0.0000 N   0  0  0  0  0  0  0  0  0  0  0  0
    4.0154   20.8812    0.0000 N   0  0  0  0  0  0  0  0  0  0  0  0
    8.3023    2.0625    0.0000 N   0  0  0  0  0  0  0  0  0  0  0  0
    8.3023   13.4560    0.0000 N   0  0  0  0  0  0  0  0  0  0  0  0
    4.2976    2.0128    0.0000 C   0  0  0  0  0  0  0  0  0  0  0  0
    4.2976   13.4063    0.0000 C   0  0  0  0  0  0  0  0  0  0  0  0
    4.0154    1.2375    0.0000 C   0  0  0  0  0  0  0  0  0  0  0  0
    4.0154   12.6310    0.0000 C   0  0  0  0  0  0  0  0  0  0  0  0
    3.7673    2.6448    0.0000 C   0  0  0  0  0  0  0  0  0  0  0  0
    3.7673   14.0383    0.0000 C   0  0  0  0  0  0  0  0  0  0  0  0
    4.0494    3.4200    0.0000 C   0  0  0  0  0  0  0  0  0  0  0  0
    4.0494   14.8135    0.0000 C   0  0  0  0  0  0  0  0  0  0  0  0
    3.3009    0.8250    0.0000 C   0  0  0  0  0  0  0  0  0  0  0  0
    3.3009   12.2185    0.0000 C   0  0  0  0  0  0  0  0  0  0  0  0
    5.3922    2.9313    0.0000 C   0  0  0  0  0  0  0  0  0  0  0  0
    5.3922   14.3248    0.0000 C   0  0  0  0  0  0  0  0  0  0  0  0
    1.8720    0.8250    0.0000 C   0  0  0  0  0  0  0  0  0  0  0  0
    1.8720   12.2185    0.0000 C   0  0  0  0  0  0  0  0  0  0  0  0
    5.4444    1.2375    0.0000 C   0  0  0  0  0  0  0  0  0  0  0  0
    5.4444   12.6310    0.0000 C   0  0  0  0  0  0  0  0  0  0  0  0
    1.1575    1.2375    0.0000 C   0  0  0  0  0  0  0  0  0  0  0  0
    1.1575   12.6310    0.0000 C   0  0  0  0  0  0  0  0  0  0  0  0
    5.4444    2.0625    0.0000 C   0  0  0  0  0  0  0  0  0  0  0  0
    5.4444   13.4560    0.0000 C   0  0  0  0  0  0  0  0  0  0  0  0
    4.0154    3.7126    0.0000 C   0  0  0  0  0  0  0  0  0  0  0  0
    1.1575    2.0625    0.0000 C   0  0  0  0  0  0  0  0  0  0  0  0
    4.0154   15.1061    0.0000 C   0  0  0  0  0  0  0  0  0  0  0  0
    1.1575   13.4560    0.0000 C   0  0  0  0  0  0  0  0  0  0  0  0
    1.8720    3.3001    0.0000 C   0  0  0  0  0  0  0  0  0  0  0  0
    1.8720   14.6936    0.0000 C   0  0  0  0  0  0  0  0  0  0  0  0
    4.0154    4.5376    0.0000 C   0  0  0  0  0  0  0  0  0  0  0  0
    4.0154   15.9311    0.0000 C   0  0  0  0  0  0  0  0  0  0  0  0
    4.7299    3.3001    0.0000 C   0  0  0  0  0  0  0  0  0  0  0  0
    4.7299   14.6936    0.0000 C   0  0  0  0  0  0  0  0  0  0  0  0
    5.4444    7.0127    0.0000 C   0  0  0  0  0  0  0  0  0  0  0  0
    5.4444   18.4062    0.0000 C   0  0  0  0  0  0  0  0  0  0  0  0
    2.5864    3.7126    0.0000 C   0  0  0  0  0  0  0  0  0  0  0  0
    2.5864   15.1061    0.0000 C   0  0  0  0  0  0  0  0  0  0  0  0
    4.7299    7.4252    0.0000 C   0  0  0  0  0  0  0  0  0  0  0  0
    5.4444    6.1876    0.0000 C   0  0  0  0  0  0  0  0  0  0  0  0
    4.7299   18.8187    0.0000 C   0  0  0  0  0  0  0  0  0  0  0  0
    5.4444   17.5811    0.0000 C   0  0  0  0  0  0  0  0  0  0  0  0
    6.1588    2.4751    0.0000 C   0  0  0  0  0  0  0  0  0  0  0  0
    6.1588   13.8686    0.0000 C   0  0  0  0  0  0  0  0  0  0  0  0
    1.1575    3.7126    0.0000 C   0  0  0  0  0  0  0  0  0  0  0  0
    1.1575   15.1061    0.0000 C   0  0  0  0  0  0  0  0  0  0  0  0
    4.7299    8.2502    0.0000 C   0  0  0  0  0  0  0  0  0  0  0  0
    4.7299    5.7751    0.0000 C   0  0  0  0  0  0  0  0  0  0  0  0
    4.7299   19.6437    0.0000 C   0  0  0  0  0  0  0  0  0  0  0  0
    4.7299   17.1686    0.0000 C   0  0  0  0  0  0  0  0  0  0  0  0
    4.0154    8.6627    0.0000 C   0  0  0  0  0  0  0  0  0  0  0  0
    4.0154   20.0562    0.0000 C   0  0  0  0  0  0  0  0  0  0  0  0
    7.5879    2.4751    0.0000 C   0  0  0  0  0  0  0  0  0  0  0  0
    7.5879   13.8686    0.0000 C   0  0  0  0  0  0  0  0  0  0  0  0
    0.0000    0.0000    0.0000 H   0  0  0  0  0  0  0  0  0  0  0  0
    0.0000    0.0000    0.0000 H   0  0  0  0  0  0  0  0  0  0  0  0
    0.0000    0.0000    0.0000 H   0  0  0  0  0  0  0  0  0  0  0  0
    0.0000    0.0000    0.0000 H   0  0  0  0  0  0  0  0  0  0  0  0
    0.0000    0.0000    0.0000 H   0  0  0  0  0  0  0  0  0  0  0  0
    0.0000    0.0000    0.0000 H   0  0  0  0  0  0  0  0  0  0  0  0
    0.0000    0.0000    0.0000 H   0  0  0  0  0  0  0  0  0  0  0  0
    0.0000    0.0000    0.0000 H   0  0  0  0  0  0  0  0  0  0  0  0
    0.0000    0.0000    0.0000 H   0  0  0  0  0  0  0  0  0  0  0  0
    0.0000    0.0000    0.0000 H   0  0  0  0  0  0  0  0  0  0  0  0
    0.0000    0.0000    0.0000 H   0  0  0  0  0  0  0  0  0  0  0  0
    0.0000    0.0000    0.0000 H   0  0  0  0  0  0  0  0  0  0  0  0
    0.0000    0.0000    0.0000 H   0  0  0  0  0  0  0  0  0  0  0  0
    0.0000    0.0000    0.0000 H   0  0  0  0  0  0  0  0  0  0  0  0
    0.0000    0.0000    0.0000 H   0  0  0  0  0  0  0  0  0  0  0  0
    0.0000    0.0000    0.0000 H   0  0  0  0  0  0  0  0  0  0  0  0
    0.0000    0.0000    0.0000 H   0  0  0  0  0  0  0  0  0  0  0  0
    0.0000    0.0000    0.0000 H   0  0  0  0  0  0  0  0  0  0  0  0
    0.0000    0.0000    0.0000 H   0  0  0  0  0  0  0  0  0  0  0  0
    0.0000    0.0000    0.0000 H   0  0  0  0  0  0  0  0  0  0  0  0
    0.0000    0.0000    0.0000 H   0  0  0  0  0  0  0  0  0  0  0  0
    0.0000    0.0000    0.0000 H   0  0  0  0  0  0  0  0  0  0  0  0
    0.0000    0.0000    0.0000 H   0  0  0  0  0  0  0  0  0  0  0  0
    0.0000    0.0000    0.0000 H   0  0  0  0  0  0  0  0  0  0  0  0
    0.0000    0.0000    0.0000 H   0  0  0  0  0  0  0  0  0  0  0  0
    0.0000    0.0000    0.0000 H   0  0  0  0  0  0  0  0  0  0  0  0
    0.0000    0.0000    0.0000 H   0  0  0  0  0  0  0  0  0  0  0  0
    0.0000    0.0000    0.0000 H   0  0  0  0  0  0  0  0  0  0  0  0
    0.0000    0.0000    0.0000 H   0  0  0  0  0  0  0  0  0  0  0  0
    0.0000    0.0000    0.0000 H   0  0  0  0  0  0  0  0  0  0  0  0
    0.0000    0.0000    0.0000 H   0  0  0  0  0  0  0  0  0  0  0  0
    0.0000    0.0000    0.0000 H   0  0  0  0  0  0  0  0  0  0  0  0
    0.0000    0.0000    0.0000 H   0  0  0  0  0  0  0  0  0  0  0  0
    0.0000    0.0000    0.0000 H   0  0  0  0  0  0  0  0  0  0  0  0
    0.0000    0.0000    0.0000 H   0  0  0  0  0  0  0  0  0  0  0  0
    0.0000    0.0000    0.0000 H   0  0  0  0  0  0  0  0  0  0  0  0
    0.0000    0.0000    0.0000 H   0  0  0  0  0  0  0  0  0  0  0  0
    0.0000    0.0000    0.0000 H   0  0  0  0  0  0  0  0  0  0  0  0
    0.0000    0.0000    0.0000 H   0  0  0  0  0  0  0  0  0  0  0  0
    0.0000    0.0000    0.0000 H   0  0  0  0  0  0  0  0  0  0  0  0
    0.0000    0.0000    0.0000 H   0  0  0  0  0  0  0  0  0  0  0  0
    0.0000    0.0000    0.0000 H   0  0  0  0  0  0  0  0  0  0  0  0
    0.0000    0.0000    0.0000 H   0  0  0  0  0  0  0  0  0  0  0  0
    0.0000    0.0000    0.0000 H   0  0  0  0  0  0  0  0  0  0  0  0
    0.0000    0.0000    0.0000 H   0  0  0  0  0  0  0  0  0  0  0  0
    0.0000    0.0000    0.0000 H   0  0  0  0  0  0  0  0  0  0  0  0
    0.0000    0.0000    0.0000 H   0  0  0  0  0  0  0  0  0  0  0  0
    0.0000    0.0000    0.0000 H   0  0  0  0  0  0  0  0  0  0  0  0
    0.0000    0.0000    0.0000 H   0  0  0  0  0  0  0  0  0  0  0  0
    0.0000    0.0000    0.0000 H   0  0  0  0  0  0  0  0  0  0  0  0
    0.0000    0.0000    0.0000 H   0  0  0  0  0  0  0  0  0  0  0  0
    0.0000    0.0000    0.0000 H   0  0  0  0  0  0  0  0  0  0  0  0
    0.0000    0.0000    0.0000 H   0  0  0  0  0  0  0  0  0  0  0  0
    0.0000    0.0000    0.0000 H   0  0  0  0  0  0  0  0  0  0  0  0
    0.0000    0.0000    0.0000 H   0  0  0  0  0  0  0  0  0  0  0  0
    0.0000    0.0000    0.0000 H   0  0  0  0  0  0  0  0  0  0  0  0
    0.0000    0.0000    0.0000 H   0  0  0  0  0  0  0  0  0  0  0  0
    0.0000    0.0000    0.0000 H   0  0  0  0  0  0  0  0  0  0  0  0
    0.0000    0.0000    0.0000 H   0  0  0  0  0  0  0  0  0  0  0  0
    0.0000    0.0000    0.0000 H   0  0  0  0  0  0  0  0  0  0  0  0
    0.0000    0.0000    0.0000 H   0  0  0  0  0  0  0  0  0  0  0  0
    0.0000    0.0000    0.0000 H   0  0  0  0  0  0  0  0  0  0  0  0
    0.0000    0.0000    0.0000 H   0  0  0  0  0  0  0  0  0  0  0  0
    0.0000    0.0000    0.0000 H   0  0  0  0  0  0  0  0  0  0  0  0
    0.0000    0.0000    0.0000 H   0  0  0  0  0  0  0  0  0  0  0  0
    0.0000    0.0000    0.0000 H   0  0  0  0  0  0  0  0  0  0  0  0
    0.0000    0.0000    0.0000 H   0  0  0  0  0  0  0  0  0  0  0  0
    0.0000    0.0000    0.0000 H   0  0  0  0  0  0  0  0  0  0  0  0
    0.0000    0.0000    0.0000 H   0  0  0  0  0  0  0  0  0  0  0  0
    0.0000    0.0000    0.0000 H   0  0  0  0  0  0  0  0  0  0  0  0
    0.0000    0.0000    0.0000 H   0  0  0  0  0  0  0  0  0  0  0  0
    0.0000    0.0000    0.0000 H   0  0  0  0  0  0  0  0  0  0  0  0
    0.0000    0.0000    0.0000 H   0  0  0  0  0  0  0  0  0  0  0  0
    0.0000    0.0000    0.0000 H   0  0  0  0  0  0  0  0  0  0  0  0
    0.0000    0.0000    0.0000 H   0  0  0  0  0  0  0  0  0  0  0  0
    0.0000    0.0000    0.0000 H   0  0  0  0  0  0  0  0  0  0  0  0
    0.0000    0.0000    0.0000 H   0  0  0  0  0  0  0  0  0  0  0  0
    0.0000    0.0000    0.0000 H   0  0  0  0  0  0  0  0  0  0  0  0
    0.0000    0.0000    0.0000 H   0  0  0  0  0  0  0  0  0  0  0  0
    0.0000    0.0000    0.0000 H   0  0  0  0  0  0  0  0  0  0  0  0
    0.0000    0.0000    0.0000 H   0  0  0  0  0  0  0  0  0  0  0  0
    0.0000    0.0000    0.0000 H   0  0  0  0  0  0  0  0  0  0  0  0
    0.0000    0.0000    0.0000 H   0  0  0  0  0  0  0  0  0  0  0  0
    0.0000    0.0000    0.0000 H   0  0  0  0  0  0  0  0  0  0  0  0
    0.0000    0.0000    0.0000 H   0  0  0  0  0  0  0  0  0  0  0  0
    0.0000    0.0000    0.0000 H   0  0  0  0  0  0  0  0  0  0  0  0
    0.0000    0.0000    0.0000 H   0  0  0  0  0  0  0  0  0  0  0  0
    0.0000    0.0000    0.0000 H   0  0  0  0  0  0  0  0  0  0  0  0
  1 52  2  0
  2 53  2  0
  3 58  2  0
  4 59  2  0
  5 65  2  0
  6 67  2  0
  7 72  2  0
  8 73  2  0
  9 76  2  0
 10 84  1  0
 11 77  2  0
 12 87  2  0
 13 89  2  0
 14 92  2  0
 15 93  2  0
 16 44  1  0
 16 54  1  0
 17 45  1  0
 17 55  1  0
 18 46  1  0
 18 58  1  0
 19 47  1  0
 19 59  1  0
 20 50  1  0
 20 54  2  0
 21 51  1  0
 21 55  2  0
 22 52  1  0
 22 56  1  0
 23 53  1  0
 23 57  1  0
 24 54  1  0
 25 55  1  0
 26 62  1  0
 26 72  1  0
 27 65  1  0
 27 68  1  0
 28 63  1  0
 28 73  1  0
 29 67  1  0
 29 69  1  0
 60 30  1  6
 31 64  1  0
 31 76  1  0
 61 32  1  6
 33 66  1  0
 33 77  1  0
 34 70  1  0
 34 87  1  0
 35 71  1  0
 35 89  1  0
 74 36  1  1
 75 37  1  1
 38 82  1  0
 38 92  1  0
 39 83  1  0
 39 93  1  0
 40 90  1  0
 41 91  1  0
 42 92  1  0
 43 93  1  0
 44 46  1  0
 44 48  1  0
 45 47  1  0
 45 49  1  0
 46 52  1  0
 47 53  1  0
 48 50  1  0
 49 51  1  0
 56 60  1  0
 57 61  1  0
 58 62  1  0
 59 63  1  0
 60 65  1  0
 61 67  1  0
 62 82  2  0
 63 83  2  0
 64 70  1  6
 64 72  1  0
 66 71  1  6
 66 73  1  0
 68 76  1  0
 68 84  1  1
 69 77  1  0
 69 85  1  1
 74 78  1  0
 74 79  1  0
 75 80  1  0
 75 81  1  0
 78 86  1  0
 79 87  1  0
 80 88  1  0
 81 89  1  0
 86 90  1  0
 88 91  1  0
 10 94  1  0
 16 95  1  0
 17 96  1  0
 18 97  1  0
 19 98  1  0
 22 99  1  0
 23100  1  0
 24101  1  0
 24102  1  0
 25103  1  0
 25104  1  0
 26105  1  0
 27106  1  0
 28107  1  0
 29108  1  0
 30109  1  0
 30110  1  0
 31111  1  0
 32112  1  0
 32113  1  0
 33114  1  0
 34115  1  0
 35116  1  0
 36117  1  0
 36118  1  0
 37119  1  0
 37120  1  0
 38121  1  0
 39122  1  0
 40123  1  0
 40124  1  0
 41125  1  0
 41126  1  0
 42127  1  0
 42128  1  0
 43129  1  0
 43130  1  0
 44131  1  6
 45132  1  6
 46133  1  1
 47134  1  1
 48135  1  0
 48136  1  0
 49137  1  0
 49138  1  0
 50139  1  0
 50140  1  0
 51141  1  0
 51142  1  0
 56143  1  0
 56144  1  0
 57145  1  0
 57146  1  0
 60147  1  0
 61148  1  0
 64149  1  0
 66150  1  0
 68151  1  0
 69152  1  0
 70153  1  0
 70154  1  0
 71155  1  0
 71156  1  0
 74157  1  0
 75158  1  0
 78159  1  0
 78160  1  0
 79161  1  0
 79162  1  0
 80163  1  0
 80164  1  0
 81165  1  0
 81166  1  0
 82167  1  0
 83168  1  0
 84169  1  0
 84170  1  0
 85171  1  0
 85172  1  0
 85173  1  0
 86174  1  0
 86175  1  0
 88176  1  0
 88177  1  0
 90178  1  0
 90179  1  0
 91180  1  0
 91181  1  0
M  END
>  <DATABASE_ID>  (1) 
DB00314

>  <DATABASE_NAME>  (1) 
drugbank

>  <DRUGBANK_ID>  (1) 
DB00314

>  <DRUG_GROUPS>  (1) 
approved

>  <EXACT_MASS>  (1) 
1320.698394286

>  <FORMULA>  (1) 
C50H88N28O15

>  <GENERIC_NAME>  (1) 
Capreomycin

>  <INCHI_IDENTIFIER>  (1) 
InChI=1S/C25H44N14O8.C25H44N14O7/c26-4-1-2-11(27)6-17(41)32-8-14-20(43)35-15(9-34-25(30)47)21(44)39-18(13-3-5-31-24(29)38-13)23(46)33-7-12(28)19(42)37-16(10-40)22(45)36-14;1-11-19(41)36-15(9-32-17(40)7-12(27)3-2-5-26)21(43)37-16(10-34-25(30)46)22(44)39-18(14-4-6-31-24(29)38-14)23(45)33-8-13(28)20(42)35-11/h9,11-14,16,18,40H,1-8,10,26-28H2,(H,32,41)(H,33,46)(H,35,43)(H,36,45)(H,37,42)(H,39,44)(H3,29,31,38)(H3,30,34,47);10-15,18H,2-9,26-28H2,1H3,(H,32,40)(H,33,45)(H,35,42)(H,36,41)(H,37,43)(H,39,44)(H3,29,31,38)(H3,30,34,46)/b15-9+;16-10+/t11-,12-,13+,14-,16-,18-;11-,12-,13-,14+,15-,18-/m00/s1

>  <INCHI_KEY>  (1) 
VCOPTHOUUNAYKQ-WBTCAYNUSA-N

>  <INTERNATIONAL_BRANDS>  (1) 
Capastat; Capreomycin; Helpomycin; Kapocin; Lykocin

>  <JCHEM_ACCEPTOR_COUNT>  (1) 
14

>  <JCHEM_AVERAGE_POLARIZABILITY>  (1) 
66.56220916011793

>  <JCHEM_BIOAVAILABILITY>  (1) 
0

>  <JCHEM_DONOR_COUNT>  (1) 
14

>  <JCHEM_FORMAL_CHARGE>  (1) 
0

>  <JCHEM_GHOSE_FILTER>  (1) 
0

>  <JCHEM_IUPAC>  (1) 
(3S)-3,6-diamino-N-{[(2S,5S,8E,11S,15S)-15-amino-11-[(4R)-2-amino-3,4,5,6-tetrahydropyrimidin-4-yl]-8-[(carbamoylamino)methylidene]-2-(hydroxymethyl)-3,6,9,12,16-pentaoxo-1,4,7,10,13-pentaazacyclohexadecan-5-yl]methyl}hexanamide; (3S)-3,6-diamino-N-{[(2S,5S,8E,11S,15S)-15-amino-11-[(4R)-2-amino-3,4,5,6-tetrahydropyrimidin-4-yl]-8-[(carbamoylamino)methylidene]-2-methyl-3,6,9,12,16-pentaoxo-1,4,7,10,13-pentaazacyclohexadecan-5-yl]methyl}hexanamide

>  <JCHEM_LOGP>  (1) 
-11.191733280524872

>  <JCHEM_MDDR_LIKE_RULE>  (1) 
1

>  <JCHEM_NUMBER_OF_RINGS>  (1) 
4

>  <JCHEM_PHYSIOLOGICAL_CHARGE>  (1) 
4

>  <JCHEM_PKA>  (1) 
10.93815355188855

>  <JCHEM_PKA_STRONGEST_ACIDIC>  (1) 
10.622466742093017

>  <JCHEM_PKA_STRONGEST_BASIC>  (1) 
10.30216585333644

>  <JCHEM_POLAR_SURFACE_AREA>  (1) 
378.41999999999985

>  <JCHEM_REFRACTIVITY>  (1) 
162.20489999999998

>  <JCHEM_ROTATABLE_BOND_COUNT>  (1) 
19

>  <JCHEM_RULE_OF_FIVE>  (1) 
0

>  <JCHEM_TRADITIONAL_IUPAC>  (1) 
(3S)-3,6-diamino-N-{[(2S,5S,8E,11S,15S)-15-amino-11-[(4R)-2-amino-3,4,5,6-tetrahydropyrimidin-4-yl]-8-[(carbamoylamino)methylidene]-2-(hydroxymethyl)-3,6,9,12,16-pentaoxo-1,4,7,10,13-pentaazacyclohexadecan-5-yl]methyl}hexanamide; (3S)-3,6-diamino-N-{[(2S,5S,8E,11S,15S)-15-amino-11-[(4R)-2-amino-3,4,5,6-tetrahydropyrimidin-4-yl]-8-[(carbamoylamino)methylidene]-2-methyl-3,6,9,12,16-pentaoxo-1,4,7,10,13-pentaazacyclohexadecan-5-yl]methyl}hexanamide

>  <JCHEM_VEBER_RULE>  (1) 
0

>  <MOLECULAR_WEIGHT>  (1) 
1321.4123

>  <PRODUCTS>  (1) 
Capastat PWS IM 1g Vial; Capastat Sulfate

>  <SALTS>  (1) 
Capreomycin sulfate

>  <SECONDARY_ACCESSION_NUMBERS>  (1) 
APRD00844

>  <SMILES>  (1) 
[H][C@@]1(CCN=C(N)N1)[C@]1([H])NC(=O)\C(NC(=O)[C@H](CNC(=O)C[C@@H](N)CCCN)NC(=O)[C@H](C)NC(=O)[C@@H](N)CNC1=O)=C/NC(N)=O.[H][C@@]1(CCN=C(N)N1)[C@]1([H])NC(=O)\C(NC(=O)[C@H](CNC(=O)C[C@@H](N)CCCN)NC(=O)[C@H](CO)NC(=O)[C@@H](N)CNC1=O)=C/NC(N)=O

$$$$
