
     RDKit          2D

179186  0  0  0  0  0  0  0  0999 V2000
   -0.3847    5.3525    0.0000 O   0  0  0  0  0  0  0  0  0  0  0  0
   -0.5022    6.4701    0.0000 O   0  0  0  0  0  0  0  0  0  0  0  0
   -1.0992    2.4650    0.0000 O   0  0  0  0  0  0  0  0  0  0  0  0
    1.7586    1.6400    0.0000 O   0  0  0  0  0  0  0  0  0  0  0  0
   -1.8015    9.1461    0.0000 O   0  0  0  0  0  0  0  0  0  0  0  0
    1.0442   -1.2475    0.0000 O   0  0  0  0  0  0  0  0  0  0  0  0
    1.0442   -6.1976    0.0000 O   0  0  0  0  0  0  0  0  0  0  0  0
    3.8849   -7.6265    0.0000 O   0  0  0  0  0  0  0  0  0  0  0  0
    0.3296   -5.7851    0.0000 O   0  0  0  0  0  0  0  0  0  0  0  0
    0.3296   -4.9601    0.0000 O   0  0  0  0  0  0  0  0  0  0  0  0
    1.0442   -2.0725    0.0000 O   0  0  0  0  0  0  0  0  0  0  0  0
    1.0442   -4.5476    0.0000 O   0  0  0  0  0  0  0  0  0  0  0  0
   -3.9571   -2.4850    0.0000 O   0  0  0  0  0  0  0  0  0  0  0  0
   -1.8137    5.3525    0.0000 N   0  0  0  0  0  0  0  0  0  0  0  0
   -0.3847    3.7025    0.0000 N   0  0  0  0  0  0  0  0  0  0  0  0
   -1.4583    7.5321    0.0000 N   0  0  0  0  0  0  0  0  0  0  0  0
    0.3296    1.6400    0.0000 N   0  0  0  0  0  0  0  0  0  0  0  0
   -3.9571    4.1150    0.0000 N   0  0  0  0  0  0  0  0  0  0  0  0
    0.3296   -0.0100    0.0000 N   0  0  0  0  0  0  0  0  0  0  0  0
   -0.4036    9.4431    0.0000 N   0  0  0  0  0  0  0  0  0  0  0  0
    2.5123   -7.0996    0.0000 N   0  0  0  0  0  0  0  0  0  0  0  0
   -0.3847   -2.0725    0.0000 N   0  0  0  0  0  0  0  0  0  0  0  0
    0.3296   -7.4351    0.0000 N   0  0  0  0  0  0  0  0  0  0  0  0
   -1.0992   -5.7851    0.0000 N   0  0  0  0  0  0  0  0  0  0  0  0
   -0.3847   -3.7226    0.0000 N   0  0  0  0  0  0  0  0  0  0  0  0
   -5.3862    4.1150    0.0000 N   0  0  0  0  0  0  0  0  0  0  0  0
   -4.6716    2.8775    0.0000 N   0  0  0  0  0  0  0  0  0  0  0  0
   -3.8275   -5.2339    0.0000 N   0  0  0  0  0  0  0  0  0  0  0  0
   -1.7666   -8.7451    0.0000 N   0  0  0  0  0  0  0  0  0  0  0  0
   -0.6867   -9.5298    0.0000 N   0  0  0  0  0  0  0  0  0  0  0  0
   -1.9000    6.1730    0.0000 C   0  0  0  0  0  0  0  0  0  0  0  0
   -2.7069    6.3445    0.0000 C   0  0  0  0  0  0  0  0  0  0  0  0
   -3.1194    5.6301    0.0000 C   0  0  0  0  0  0  0  0  0  0  0  0
   -2.5674    5.0170    0.0000 C   0  0  0  0  0  0  0  0  0  0  0  0
   -1.0992    4.9400    0.0000 C   0  0  0  0  0  0  0  0  0  0  0  0
   -1.0992    4.1150    0.0000 C   0  0  0  0  0  0  0  0  0  0  0  0
   -1.2868    6.7250    0.0000 C   0  0  0  0  0  0  0  0  0  0  0  0
   -1.8137    3.7025    0.0000 C   0  0  0  0  0  0  0  0  0  0  0  0
   -2.5282    4.1150    0.0000 C   0  0  0  0  0  0  0  0  0  0  0  0
    0.3296    2.4650    0.0000 C   0  0  0  0  0  0  0  0  0  0  0  0
   -0.3847    2.8775    0.0000 C   0  0  0  0  0  0  0  0  0  0  0  0
    1.0442    2.8775    0.0000 C   0  0  0  0  0  0  0  0  0  0  0  0
    1.4567    3.5920    0.0000 C   0  0  0  0  0  0  0  0  0  0  0  0
   -3.2427    3.7025    0.0000 C   0  0  0  0  0  0  0  0  0  0  0  0
   -0.8453    8.0841    0.0000 C   0  0  0  0  0  0  0  0  0  0  0  0
    2.2817    3.5920    0.0000 C   0  0  0  0  0  0  0  0  0  0  0  0
    1.0442    4.3064    0.0000 C   0  0  0  0  0  0  0  0  0  0  0  0
    1.0442    1.2275    0.0000 C   0  0  0  0  0  0  0  0  0  0  0  0
    1.0442    0.4024    0.0000 C   0  0  0  0  0  0  0  0  0  0  0  0
   -1.0168    8.8911    0.0000 C   0  0  0  0  0  0  0  0  0  0  0  0
    1.7586   -0.0100    0.0000 C   0  0  0  0  0  0  0  0  0  0  0  0
    2.4731    0.4024    0.0000 C   0  0  0  0  0  0  0  0  0  0  0  0
   -0.3847   -1.2475    0.0000 C   0  0  0  0  0  0  0  0  0  0  0  0
    0.3296   -0.8350    0.0000 C   0  0  0  0  0  0  0  0  0  0  0  0
   -4.6716    3.7025    0.0000 C   0  0  0  0  0  0  0  0  0  0  0  0
    1.7586   -7.4351    0.0000 C   0  0  0  0  0  0  0  0  0  0  0  0
    1.8449   -8.2556    0.0000 C   0  0  0  0  0  0  0  0  0  0  0  0
   -1.0992   -4.9601    0.0000 C   0  0  0  0  0  0  0  0  0  0  0  0
   -0.3847   -7.0226    0.0000 C   0  0  0  0  0  0  0  0  0  0  0  0
   -1.0992   -0.8350    0.0000 C   0  0  0  0  0  0  0  0  0  0  0  0
    2.6519   -8.4271    0.0000 C   0  0  0  0  0  0  0  0  0  0  0  0
    3.1876   -0.0100    0.0000 C   0  0  0  0  0  0  0  0  0  0  0  0
   -1.8137   -4.5476    0.0000 C   0  0  0  0  0  0  0  0  0  0  0  0
    1.0442   -7.0226    0.0000 C   0  0  0  0  0  0  0  0  0  0  0  0
    2.4731    1.2275    0.0000 C   0  0  0  0  0  0  0  0  0  0  0  0
    3.0644   -7.7127    0.0000 C   0  0  0  0  0  0  0  0  0  0  0  0
    0.3296   -3.3100    0.0000 C   0  0  0  0  0  0  0  0  0  0  0  0
   -1.0992   -7.4351    0.0000 C   0  0  0  0  0  0  0  0  0  0  0  0
   -0.3847   -6.1976    0.0000 C   0  0  0  0  0  0  0  0  0  0  0  0
   -2.5282   -4.9601    0.0000 C   0  0  0  0  0  0  0  0  0  0  0  0
    3.9021    0.4024    0.0000 C   0  0  0  0  0  0  0  0  0  0  0  0
   -0.3847   -4.5476    0.0000 C   0  0  0  0  0  0  0  0  0  0  0  0
    0.3296   -2.4850    0.0000 C   0  0  0  0  0  0  0  0  0  0  0  0
   -1.8137   -1.2475    0.0000 C   0  0  0  0  0  0  0  0  0  0  0  0
    3.9021    1.2275    0.0000 C   0  0  0  0  0  0  0  0  0  0  0  0
    3.1876    1.6400    0.0000 C   0  0  0  0  0  0  0  0  0  0  0  0
   -2.6132   -5.7758    0.0000 C   0  0  0  0  0  0  0  0  0  0  0  0
   -1.0992   -8.2602    0.0000 C   0  0  0  0  0  0  0  0  0  0  0  0
    1.0442   -3.7226    0.0000 C   0  0  0  0  0  0  0  0  0  0  0  0
   -3.2772   -4.6259    0.0000 C   0  0  0  0  0  0  0  0  0  0  0  0
   -3.4205   -5.9459    0.0000 C   0  0  0  0  0  0  0  0  0  0  0  0
    4.6396   -0.0386    0.0000 C   0  0  0  0  0  0  0  0  0  0  0  0
    4.6396    1.6686    0.0000 C   0  0  0  0  0  0  0  0  0  0  0  0
   -1.8137   -2.0725    0.0000 C   0  0  0  0  0  0  0  0  0  0  0  0
   -2.5282   -0.8350    0.0000 C   0  0  0  0  0  0  0  0  0  0  0  0
   -2.0622   -6.3898    0.0000 C   0  0  0  0  0  0  0  0  0  0  0  0
   -3.6768   -6.7302    0.0000 C   0  0  0  0  0  0  0  0  0  0  0  0
    5.3872    0.3853    0.0000 C   0  0  0  0  0  0  0  0  0  0  0  0
   -0.4318   -8.7451    0.0000 C   0  0  0  0  0  0  0  0  0  0  0  0
    5.3872    1.2446    0.0000 C   0  0  0  0  0  0  0  0  0  0  0  0
   -2.3185   -7.1740    0.0000 C   0  0  0  0  0  0  0  0  0  0  0  0
   -2.5282   -2.4850    0.0000 C   0  0  0  0  0  0  0  0  0  0  0  0
   -3.2427   -1.2475    0.0000 C   0  0  0  0  0  0  0  0  0  0  0  0
   -3.1258   -7.3442    0.0000 C   0  0  0  0  0  0  0  0  0  0  0  0
   -3.2427   -2.0725    0.0000 C   0  0  0  0  0  0  0  0  0  0  0  0
   -1.5117   -9.5298    0.0000 C   0  0  0  0  0  0  0  0  0  0  0  0
    0.0000    0.0000    0.0000 H   0  0  0  0  0  0  0  0  0  0  0  0
    0.0000    0.0000    0.0000 H   0  0  0  0  0  0  0  0  0  0  0  0
    0.0000    0.0000    0.0000 H   0  0  0  0  0  0  0  0  0  0  0  0
    0.0000    0.0000    0.0000 H   0  0  0  0  0  0  0  0  0  0  0  0
    0.0000    0.0000    0.0000 H   0  0  0  0  0  0  0  0  0  0  0  0
    0.0000    0.0000    0.0000 H   0  0  0  0  0  0  0  0  0  0  0  0
    0.0000    0.0000    0.0000 H   0  0  0  0  0  0  0  0  0  0  0  0
    0.0000    0.0000    0.0000 H   0  0  0  0  0  0  0  0  0  0  0  0
    0.0000    0.0000    0.0000 H   0  0  0  0  0  0  0  0  0  0  0  0
    0.0000    0.0000    0.0000 H   0  0  0  0  0  0  0  0  0  0  0  0
    0.0000    0.0000    0.0000 H   0  0  0  0  0  0  0  0  0  0  0  0
    0.0000    0.0000    0.0000 H   0  0  0  0  0  0  0  0  0  0  0  0
    0.0000    0.0000    0.0000 H   0  0  0  0  0  0  0  0  0  0  0  0
    0.0000    0.0000    0.0000 H   0  0  0  0  0  0  0  0  0  0  0  0
    0.0000    0.0000    0.0000 H   0  0  0  0  0  0  0  0  0  0  0  0
    0.0000    0.0000    0.0000 H   0  0  0  0  0  0  0  0  0  0  0  0
    0.0000    0.0000    0.0000 H   0  0  0  0  0  0  0  0  0  0  0  0
    0.0000    0.0000    0.0000 H   0  0  0  0  0  0  0  0  0  0  0  0
    0.0000    0.0000    0.0000 H   0  0  0  0  0  0  0  0  0  0  0  0
    0.0000    0.0000    0.0000 H   0  0  0  0  0  0  0  0  0  0  0  0
    0.0000    0.0000    0.0000 H   0  0  0  0  0  0  0  0  0  0  0  0
    0.0000    0.0000    0.0000 H   0  0  0  0  0  0  0  0  0  0  0  0
    0.0000    0.0000    0.0000 H   0  0  0  0  0  0  0  0  0  0  0  0
    0.0000    0.0000    0.0000 H   0  0  0  0  0  0  0  0  0  0  0  0
    0.0000    0.0000    0.0000 H   0  0  0  0  0  0  0  0  0  0  0  0
    0.0000    0.0000    0.0000 H   0  0  0  0  0  0  0  0  0  0  0  0
    0.0000    0.0000    0.0000 H   0  0  0  0  0  0  0  0  0  0  0  0
    0.0000    0.0000    0.0000 H   0  0  0  0  0  0  0  0  0  0  0  0
    0.0000    0.0000    0.0000 H   0  0  0  0  0  0  0  0  0  0  0  0
    0.0000    0.0000    0.0000 H   0  0  0  0  0  0  0  0  0  0  0  0
    0.0000    0.0000    0.0000 H   0  0  0  0  0  0  0  0  0  0  0  0
    0.0000    0.0000    0.0000 H   0  0  0  0  0  0  0  0  0  0  0  0
    0.0000    0.0000    0.0000 H   0  0  0  0  0  0  0  0  0  0  0  0
    0.0000    0.0000    0.0000 H   0  0  0  0  0  0  0  0  0  0  0  0
    0.0000    0.0000    0.0000 H   0  0  0  0  0  0  0  0  0  0  0  0
    0.0000    0.0000    0.0000 H   0  0  0  0  0  0  0  0  0  0  0  0
    0.0000    0.0000    0.0000 H   0  0  0  0  0  0  0  0  0  0  0  0
    0.0000    0.0000    0.0000 H   0  0  0  0  0  0  0  0  0  0  0  0
    0.0000    0.0000    0.0000 H   0  0  0  0  0  0  0  0  0  0  0  0
    0.0000    0.0000    0.0000 H   0  0  0  0  0  0  0  0  0  0  0  0
    0.0000    0.0000    0.0000 H   0  0  0  0  0  0  0  0  0  0  0  0
    0.0000    0.0000    0.0000 H   0  0  0  0  0  0  0  0  0  0  0  0
    0.0000    0.0000    0.0000 H   0  0  0  0  0  0  0  0  0  0  0  0
    0.0000    0.0000    0.0000 H   0  0  0  0  0  0  0  0  0  0  0  0
    0.0000    0.0000    0.0000 H   0  0  0  0  0  0  0  0  0  0  0  0
    0.0000    0.0000    0.0000 H   0  0  0  0  0  0  0  0  0  0  0  0
    0.0000    0.0000    0.0000 H   0  0  0  0  0  0  0  0  0  0  0  0
    0.0000    0.0000    0.0000 H   0  0  0  0  0  0  0  0  0  0  0  0
    0.0000    0.0000    0.0000 H   0  0  0  0  0  0  0  0  0  0  0  0
    0.0000    0.0000    0.0000 H   0  0  0  0  0  0  0  0  0  0  0  0
    0.0000    0.0000    0.0000 H   0  0  0  0  0  0  0  0  0  0  0  0
    0.0000    0.0000    0.0000 H   0  0  0  0  0  0  0  0  0  0  0  0
    0.0000    0.0000    0.0000 H   0  0  0  0  0  0  0  0  0  0  0  0
    0.0000    0.0000    0.0000 H   0  0  0  0  0  0  0  0  0  0  0  0
    0.0000    0.0000    0.0000 H   0  0  0  0  0  0  0  0  0  0  0  0
    0.0000    0.0000    0.0000 H   0  0  0  0  0  0  0  0  0  0  0  0
    0.0000    0.0000    0.0000 H   0  0  0  0  0  0  0  0  0  0  0  0
    0.0000    0.0000    0.0000 H   0  0  0  0  0  0  0  0  0  0  0  0
    0.0000    0.0000    0.0000 H   0  0  0  0  0  0  0  0  0  0  0  0
    0.0000    0.0000    0.0000 H   0  0  0  0  0  0  0  0  0  0  0  0
    0.0000    0.0000    0.0000 H   0  0  0  0  0  0  0  0  0  0  0  0
    0.0000    0.0000    0.0000 H   0  0  0  0  0  0  0  0  0  0  0  0
    0.0000    0.0000    0.0000 H   0  0  0  0  0  0  0  0  0  0  0  0
    0.0000    0.0000    0.0000 H   0  0  0  0  0  0  0  0  0  0  0  0
    0.0000    0.0000    0.0000 H   0  0  0  0  0  0  0  0  0  0  0  0
    0.0000    0.0000    0.0000 H   0  0  0  0  0  0  0  0  0  0  0  0
    0.0000    0.0000    0.0000 H   0  0  0  0  0  0  0  0  0  0  0  0
    0.0000    0.0000    0.0000 H   0  0  0  0  0  0  0  0  0  0  0  0
    0.0000    0.0000    0.0000 H   0  0  0  0  0  0  0  0  0  0  0  0
    0.0000    0.0000    0.0000 H   0  0  0  0  0  0  0  0  0  0  0  0
    0.0000    0.0000    0.0000 H   0  0  0  0  0  0  0  0  0  0  0  0
    0.0000    0.0000    0.0000 H   0  0  0  0  0  0  0  0  0  0  0  0
    0.0000    0.0000    0.0000 H   0  0  0  0  0  0  0  0  0  0  0  0
    0.0000    0.0000    0.0000 H   0  0  0  0  0  0  0  0  0  0  0  0
    0.0000    0.0000    0.0000 H   0  0  0  0  0  0  0  0  0  0  0  0
    0.0000    0.0000    0.0000 H   0  0  0  0  0  0  0  0  0  0  0  0
    0.0000    0.0000    0.0000 H   0  0  0  0  0  0  0  0  0  0  0  0
    0.0000    0.0000    0.0000 H   0  0  0  0  0  0  0  0  0  0  0  0
    0.0000    0.0000    0.0000 H   0  0  0  0  0  0  0  0  0  0  0  0
    0.0000    0.0000    0.0000 H   0  0  0  0  0  0  0  0  0  0  0  0
    0.0000    0.0000    0.0000 H   0  0  0  0  0  0  0  0  0  0  0  0
    0.0000    0.0000    0.0000 H   0  0  0  0  0  0  0  0  0  0  0  0
    0.0000    0.0000    0.0000 H   0  0  0  0  0  0  0  0  0  0  0  0
  1 35  2  0
  2 37  2  0
  3 41  2  0
  4 48  2  0
  5 50  2  0
  6 54  2  0
  7 64  2  0
  8 66  2  0
  9 69  2  0
 10 72  2  0
 11 73  2  0
 12 79  1  0
 13 95  1  0
 14 31  1  0
 14 34  1  0
 14 35  1  0
 36 15  1  1
 15 41  1  0
 16 37  1  0
 16 45  1  0
 40 17  1  6
 17 48  1  0
 18 44  1  0
 18 55  2  3
 49 19  1  1
 19 54  1  0
 20 50  1  0
 21 56  1  0
 21 66  1  0
 53 22  1  6
 22 73  1  0
 59 23  1  1
 23 64  1  0
 58 24  1  6
 24 69  1  0
 67 25  1  6
 25 72  1  0
 26 55  1  0
 27 55  1  0
 28 80  1  0
 28 81  1  0
 29 78  1  0
 29 96  1  0
 30 89  1  0
 30 96  2  0
 31 32  1  0
 31 37  1  1
 32 33  1  0
 33 34  1  0
 35 36  1  0
 36 38  1  0
 38 39  1  0
 39 44  1  0
 40 41  1  0
 40 42  1  0
 42 43  1  0
 43 46  1  0
 43 47  1  0
 45 50  1  0
 48 49  1  0
 49 51  1  0
 51 52  1  0
 52 62  2  0
 52 65  1  0
 53 54  1  0
 53 60  1  0
 56 57  1  0
 56 64  1  1
 57 61  1  0
 58 63  1  0
 58 72  1  0
 59 68  1  0
 59 69  1  0
 60 74  1  0
 61 66  1  0
 62 71  1  0
 63 70  1  0
 65 76  2  0
 67 73  1  0
 67 79  1  0
 68 78  1  0
 70 77  1  0
 70 80  2  0
 71 75  2  0
 71 82  1  0
 74 84  2  0
 74 85  1  0
 75 76  1  0
 75 83  1  0
 77 81  2  0
 77 86  1  0
 78 89  2  0
 81 87  1  0
 82 88  2  0
 83 90  2  0
 84 92  1  0
 85 93  2  0
 86 91  2  0
 87 94  2  0
 88 90  1  0
 91 94  1  0
 92 95  2  0
 93 95  1  0
 12 97  1  0
 13 98  1  0
 15 99  1  0
 16100  1  0
 17101  1  0
 19102  1  0
 20103  1  0
 20104  1  0
 21105  1  0
 22106  1  0
 23107  1  0
 24108  1  0
 25109  1  0
 26110  1  0
 26111  1  0
 27112  1  0
 27113  1  0
 28114  1  0
 29115  1  0
 31116  1  0
 32117  1  0
 32118  1  0
 33119  1  0
 33120  1  0
 34121  1  0
 34122  1  0
 36123  1  0
 38124  1  0
 38125  1  0
 39126  1  0
 39127  1  0
 40128  1  0
 42129  1  0
 42130  1  0
 43131  1  0
 44132  1  0
 44133  1  0
 45134  1  0
 45135  1  0
 46136  1  0
 46137  1  0
 46138  1  0
 47139  1  0
 47140  1  0
 47141  1  0
 49142  1  0
 51143  1  0
 51144  1  0
 53145  1  0
 56146  1  0
 57147  1  0
 57148  1  0
 58149  1  0
 59150  1  0
 60151  1  0
 60152  1  0
 61153  1  0
 61154  1  0
 62155  1  0
 63156  1  0
 63157  1  0
 65158  1  0
 67159  1  0
 68160  1  0
 68161  1  0
 76162  1  0
 79163  1  0
 79164  1  0
 80165  1  0
 82166  1  0
 83167  1  0
 84168  1  0
 85169  1  0
 86170  1  0
 87171  1  0
 88172  1  0
 89173  1  0
 90174  1  0
 91175  1  0
 92176  1  0
 93177  1  0
 94178  1  0
 96179  1  0
M  END
>  <ALOGPS_LOGP>  (1) 
1.27

>  <ALOGPS_LOGS>  (1) 
-4.96

>  <ALOGPS_SOLUBILITY>  (1) 
1.44e-02 g/l

>  <DATABASE_ID>  (1) 
DB00666

>  <DATABASE_NAME>  (1) 
drugbank

>  <DRUGBANK_ID>  (1) 
DB00666

>  <DRUG_GROUPS>  (1) 
approved

>  <EXACT_MASS>  (1) 
1321.635625801

>  <FORMULA>  (1) 
C66H83N17O13

>  <GENERIC_NAME>  (1) 
Nafarelin

>  <INCHI_IDENTIFIER>  (1) 
InChI=1S/C66H83N17O13/c1-36(2)25-48(58(89)76-47(13-7-23-71-66(68)69)65(96)83-24-8-14-54(83)64(95)73-33-55(67)86)77-60(91)50(28-38-15-18-39-9-3-4-10-40(39)26-38)78-59(90)49(27-37-16-19-43(85)20-17-37)79-63(94)53(34-84)82-61(92)51(29-41-31-72-45-12-6-5-11-44(41)45)80-62(93)52(30-42-32-70-35-74-42)81-57(88)46-21-22-56(87)75-46/h3-6,9-12,15-20,26,31-32,35-36,46-54,72,84-85H,7-8,13-14,21-25,27-30,33-34H2,1-2H3,(H2,67,86)(H,70,74)(H,73,95)(H,75,87)(H,76,89)(H,77,91)(H,78,90)(H,79,94)(H,80,93)(H,81,88)(H,82,92)(H4,68,69,71)/t46-,47-,48-,49-,50+,51-,52-,53-,54-/m0/s1

>  <INCHI_KEY>  (1) 
RWHUEXWOYVBUCI-ITQXDASVSA-N

>  <INTERNATIONAL_BRANDS>  (1) 
Nafarelil; Nasanyl; Synarela; Synrelina

>  <JCHEM_ACCEPTOR_COUNT>  (1) 
17

>  <JCHEM_ATOM_COUNT>  (1) 
179

>  <JCHEM_AVERAGE_POLARIZABILITY>  (1) 
137.59548397108398

>  <JCHEM_BIOAVAILABILITY>  (1) 
0

>  <JCHEM_DONOR_COUNT>  (1) 
16

>  <JCHEM_FORMAL_CHARGE>  (1) 
0

>  <JCHEM_GHOSE_FILTER>  (1) 
0

>  <JCHEM_IUPAC>  (1) 
(2S)-N-[(2S)-1-[(2S)-2-[(carbamoylmethyl)carbamoyl]pyrrolidin-1-yl]-5-[(diaminomethylidene)amino]-1-oxopentan-2-yl]-2-[(2R)-2-[(2S)-2-[(2S)-3-hydroxy-2-[(2S)-2-[(2S)-3-(1H-imidazol-5-yl)-2-{[(2S)-5-oxopyrrolidin-2-yl]formamido}propanamido]-3-(1H-indol-3-yl)propanamido]propanamido]-3-(4-hydroxyphenyl)propanamido]-3-(naphthalen-2-yl)propanamido]-4-methylpentanamide

>  <JCHEM_LOGP>  (1) 
-3.104655952122254

>  <JCHEM_MDDR_LIKE_RULE>  (1) 
1

>  <JCHEM_NUMBER_OF_RINGS>  (1) 
8

>  <JCHEM_PHYSIOLOGICAL_CHARGE>  (1) 
2

>  <JCHEM_PKA>  (1) 
10.628180401197959

>  <JCHEM_PKA_STRONGEST_ACIDIC>  (1) 
9.470831537506124

>  <JCHEM_PKA_STRONGEST_BASIC>  (1) 
11.162440404462348

>  <JCHEM_POLAR_SURFACE_AREA>  (1) 
474.62999999999977

>  <JCHEM_REFRACTIVITY>  (1) 
348.0684000000002

>  <JCHEM_ROTATABLE_BOND_COUNT>  (1) 
33

>  <JCHEM_RULE_OF_FIVE>  (1) 
0

>  <JCHEM_TRADITIONAL_IUPAC>  (1) 
(2S)-N-[(2S)-1-[(2S)-2-(carbamoylmethylcarbamoyl)pyrrolidin-1-yl]-5-[(diaminomethylidene)amino]-1-oxopentan-2-yl]-2-[(2R)-2-[(2S)-2-[(2S)-3-hydroxy-2-[(2S)-2-[(2S)-3-(3H-imidazol-4-yl)-2-{[(2S)-5-oxopyrrolidin-2-yl]formamido}propanamido]-3-(1H-indol-3-yl)propanamido]propanamido]-3-(4-hydroxyphenyl)propanamido]-3-(naphthalen-2-yl)propanamido]-4-methylpentanamide

>  <JCHEM_VEBER_RULE>  (1) 
0

>  <MOLECULAR_WEIGHT>  (1) 
1322.496

>  <PRODUCTS>  (1) 
Synarel; Synarel Nas Sol 2mg/ml

>  <SALTS>  (1) 
Nafarelin acetate hydrate

>  <SECONDARY_ACCESSION_NUMBERS>  (1) 
APRD01129

>  <SMILES>  (1) 
CC(C)C[C@H](NC(=O)[C@@H](CC1=CC2=CC=CC=C2C=C1)NC(=O)[C@H](CC1=CC=C(O)C=C1)NC(=O)[C@H](CO)NC(=O)[C@H](CC1=CNC2=CC=CC=C12)NC(=O)[C@H](CC1=CN=CN1)NC(=O)[C@@H]1CCC(=O)N1)C(=O)N[C@@H](CCCN=C(N)N)C(=O)N1CCC[C@H]1C(=O)NCC(N)=O

>  <SYNONYMS>  (1) 
Nafarelin; Nafarelina; NafarÃ©line; Nafarelinum

$$$$
