320
     RDKit          2D

 80 87  0  0  1  0  0  0  0  0999 V2000
    3.6245    0.4404    0.0000 O   0  0  0  0  0  0  0  0  0  0  0  0
    2.7811    0.9170    0.0000 O   0  0  0  0  0  0  0  0  0  0  0  0
    3.7828    3.7179    0.0000 O   0  0  0  0  0  0  0  0  0  0  0  0
    5.6557    1.0731    0.0000 O   0  0  0  0  0  0  0  0  0  0  0  0
    4.4339   -1.3764    0.0000 O   0  0  0  0  0  0  0  0  0  0  0  0
    4.2860    1.5939    0.0000 N   0  0  0  0  0  0  0  0  0  0  0  0
    2.9473    2.5586    0.0000 N   0  0  0  0  0  0  0  0  0  0  0  0
    7.3480   -1.3766    0.0000 N   0  0  0  0  0  0  0  0  0  0  0  0
    5.1436   -0.1361    0.0000 N   0  0  0  0  0  0  0  0  0  0  0  0
    8.3230   -4.7727    0.0000 N   0  0  0  0  0  0  0  0  0  0  0  0
    2.8642    1.7378    0.0000 C   0  0  0  0  0  0  0  0  0  0  0  0
    3.5335    1.2554    0.0000 C   0  0  0  0  0  0  0  0  0  0  0  0
    6.6203   -2.6484    0.0000 C   0  0  0  0  0  0  0  0  0  0  0  0
    7.3347   -2.2359    0.0000 C   0  0  0  0  0  0  0  0  0  0  0  0
    2.0622    1.5663    0.0000 C   0  0  0  0  0  0  0  0  0  0  0  0
    4.3690    2.4147    0.0000 C   0  0  0  0  0  0  0  0  0  0  0  0
    4.4275    0.2737    0.0000 C   0  0  0  0  0  0  0  0  0  0  0  0
    5.8628   -1.3708    0.0000 C   0  0  0  0  0  0  0  0  0  0  0  0
    5.8695   -2.2302    0.0000 C   0  0  0  0  0  0  0  0  0  0  0  0
    2.1959    2.8873    0.0000 C   0  0  0  0  0  0  0  0  0  0  0  0
    1.6500    2.2753    0.0000 C   0  0  0  0  0  0  0  0  0  0  0  0
    3.6997    2.8970    0.0000 C   0  0  0  0  0  0  0  0  0  0  0  0
    4.8355    0.9852    0.0000 C   0  0  0  0  0  0  0  0  0  0  0  0
    6.6071   -0.9412    0.0000 C   0  0  0  0  0  0  0  0  0  0  0  0
    8.0492   -2.6484    0.0000 C   0  0  0  0  0  0  0  0  0  0  0  0
    6.6203   -3.4734    0.0000 C   0  0  0  0  0  0  0  0  0  0  0  0
    5.1214    2.7532    0.0000 C   0  0  0  0  0  0  0  0  0  0  0  0
    5.1468   -0.9611    0.0000 C   0  0  0  0  0  0  0  0  0  0  0  0
    7.3347   -3.8859    0.0000 C   0  0  0  0  0  0  0  0  0  0  0  0
    8.0492   -3.4734    0.0000 C   0  0  0  0  0  0  0  0  0  0  0  0
    4.2591   -0.5340    0.0000 C   0  0  0  0  0  0  0  0  0  0  0  0
    8.0672   -0.9724    0.0000 C   0  0  0  0  0  0  0  0  0  0  0  0
    7.3480   -4.7452    0.0000 C   0  0  0  0  0  0  0  0  0  0  0  0
    5.8695   -3.8915    0.0000 C   0  0  0  0  0  0  0  0  0  0  0  0
    8.6572   -4.0238    0.0000 C   0  0  0  0  0  0  0  0  0  0  0  0
    5.2044    3.5740    0.0000 C   0  0  0  0  0  0  0  0  0  0  0  0
    6.6071   -5.1805    0.0000 C   0  0  0  0  0  0  0  0  0  0  0  0
    5.8628   -4.7509    0.0000 C   0  0  0  0  0  0  0  0  0  0  0  0
    5.9569    3.9125    0.0000 C   0  0  0  0  0  0  0  0  0  0  0  0
    4.5351    4.0564    0.0000 C   0  0  0  0  0  0  0  0  0  0  0  0
    6.0399    4.7333    0.0000 C   0  0  0  0  0  0  0  0  0  0  0  0
    4.6182    4.8772    0.0000 C   0  0  0  0  0  0  0  0  0  0  0  0
    5.3706    5.2157    0.0000 C   0  0  0  0  0  0  0  0  0  0  0  0
    0.0000    0.0000    0.0000 H   0  0  0  0  0  0  0  0  0  0  0  0
    0.0000    0.0000    0.0000 H   0  0  0  0  0  0  0  0  0  0  0  0
    0.0000    0.0000    0.0000 H   0  0  0  0  0  0  0  0  0  0  0  0
    0.0000    0.0000    0.0000 H   0  0  0  0  0  0  0  0  0  0  0  0
    0.0000    0.0000    0.0000 H   0  0  0  0  0  0  0  0  0  0  0  0
    0.0000    0.0000    0.0000 H   0  0  0  0  0  0  0  0  0  0  0  0
    0.0000    0.0000    0.0000 H   0  0  0  0  0  0  0  0  0  0  0  0
    0.0000    0.0000    0.0000 H   0  0  0  0  0  0  0  0  0  0  0  0
    0.0000    0.0000    0.0000 H   0  0  0  0  0  0  0  0  0  0  0  0
    0.0000    0.0000    0.0000 H   0  0  0  0  0  0  0  0  0  0  0  0
    0.0000    0.0000    0.0000 H   0  0  0  0  0  0  0  0  0  0  0  0
    0.0000    0.0000    0.0000 H   0  0  0  0  0  0  0  0  0  0  0  0
    0.0000    0.0000    0.0000 H   0  0  0  0  0  0  0  0  0  0  0  0
    0.0000    0.0000    0.0000 H   0  0  0  0  0  0  0  0  0  0  0  0
    0.0000    0.0000    0.0000 H   0  0  0  0  0  0  0  0  0  0  0  0
    0.0000    0.0000    0.0000 H   0  0  0  0  0  0  0  0  0  0  0  0
    0.0000    0.0000    0.0000 H   0  0  0  0  0  0  0  0  0  0  0  0
    0.0000    0.0000    0.0000 H   0  0  0  0  0  0  0  0  0  0  0  0
    0.0000    0.0000    0.0000 H   0  0  0  0  0  0  0  0  0  0  0  0
    0.0000    0.0000    0.0000 H   0  0  0  0  0  0  0  0  0  0  0  0
    0.0000    0.0000    0.0000 H   0  0  0  0  0  0  0  0  0  0  0  0
    0.0000    0.0000    0.0000 H   0  0  0  0  0  0  0  0  0  0  0  0
    0.0000    0.0000    0.0000 H   0  0  0  0  0  0  0  0  0  0  0  0
    0.0000    0.0000    0.0000 H   0  0  0  0  0  0  0  0  0  0  0  0
    0.0000    0.0000    0.0000 H   0  0  0  0  0  0  0  0  0  0  0  0
    0.0000    0.0000    0.0000 H   0  0  0  0  0  0  0  0  0  0  0  0
    0.0000    0.0000    0.0000 H   0  0  0  0  0  0  0  0  0  0  0  0
    0.0000    0.0000    0.0000 H   0  0  0  0  0  0  0  0  0  0  0  0
    0.0000    0.0000    0.0000 H   0  0  0  0  0  0  0  0  0  0  0  0
    0.0000    0.0000    0.0000 H   0  0  0  0  0  0  0  0  0  0  0  0
    0.0000    0.0000    0.0000 H   0  0  0  0  0  0  0  0  0  0  0  0
    0.0000    0.0000    0.0000 H   0  0  0  0  0  0  0  0  0  0  0  0
    0.0000    0.0000    0.0000 H   0  0  0  0  0  0  0  0  0  0  0  0
    0.0000    0.0000    0.0000 H   0  0  0  0  0  0  0  0  0  0  0  0
    0.0000    0.0000    0.0000 H   0  0  0  0  0  0  0  0  0  0  0  0
    0.0000    0.0000    0.0000 H   0  0  0  0  0  0  0  0  0  0  0  0
    0.0000    0.0000    0.0000 H   0  0  0  0  0  0  0  0  0  0  0  0
  1 12  1  0
  1 17  1  0
 12  2  1  6
  3 22  2  0
  4 23  2  0
  5 28  2  0
  6 12  1  0
  6 16  1  0
  6 23  1  0
  7 11  1  0
  7 20  1  0
  7 22  1  0
  8 14  1  0
  8 24  1  0
  8 32  1  0
 17  9  1  6
  9 28  1  0
 10 33  1  0
 10 35  1  0
 11 12  1  0
 11 15  1  0
 13 14  1  0
 13 19  1  0
 13 26  1  0
 14 25  1  0
 15 21  1  0
 16 22  1  0
 16 27  1  1
 17 23  1  0
 17 31  1  0
 18 19  1  0
 18 24  1  0
 18 28  1  1
 20 21  1  0
 25 30  1  0
 26 29  2  0
 26 34  1  0
 27 36  1  0
 29 30  1  0
 29 33  1  0
 30 35  2  0
 33 37  2  0
 34 38  2  0
 36 39  2  0
 36 40  1  0
 37 38  1  0
 39 41  1  0
 40 42  2  0
 41 43  2  0
 42 43  1  0
  2 44  1  0
  9 45  1  0
 10 46  1  0
 11 47  1  1
 13 48  1  6
 14 49  1  1
 15 50  1  0
 15 51  1  0
 16 52  1  0
 18 53  1  0
 19 54  1  0
 19 55  1  0
 20 56  1  0
 20 57  1  0
 21 58  1  0
 21 59  1  0
 24 60  1  0
 24 61  1  0
 25 62  1  0
 25 63  1  0
 27 64  1  0
 27 65  1  0
 31 66  1  0
 31 67  1  0
 31 68  1  0
 32 69  1  0
 32 70  1  0
 32 71  1  0
 34 72  1  0
 35 73  1  0
 37 74  1  0
 38 75  1  0
 39 76  1  0
 40 77  1  0
 41 78  1  0
 42 79  1  0
 43 80  1  0
M  END
>  <ALOGPS_LOGP>  (1) 
3.04

>  <ALOGPS_LOGS>  (1) 
-3.41

>  <ALOGPS_SOLUBILITY>  (1) 
2.29e-01 g/l

>  <DATABASE_ID>  (1) 
DB00320

>  <DATABASE_NAME>  (1) 
drugbank

>  <DRUGBANK_ID>  (1) 
DB00320

>  <DRUG_GROUPS>  (1) 
approved

>  <EXACT_MASS>  (1) 
583.279469319

>  <FORMULA>  (1) 
C33H37N5O5

>  <GENERIC_NAME>  (1) 
Dihydroergotamine

>  <INCHI_IDENTIFIER>  (1) 
InChI=1S/C33H37N5O5/c1-32(35-29(39)21-15-23-22-10-6-11-24-28(22)20(17-34-24)16-25(23)36(2)18-21)31(41)38-26(14-19-8-4-3-5-9-19)30(40)37-13-7-12-27(37)33(38,42)43-32/h3-6,8-11,17,21,23,25-27,34,42H,7,12-16,18H2,1-2H3,(H,35,39)/t21-,23-,25-,26+,27+,32-,33+/m1/s1

>  <INCHI_KEY>  (1) 
LUZRJRNZXALNLM-JGRZULCMSA-N

>  <INTERNATIONAL_BRANDS>  (1) 
Dihydergot; Ergont; Ergotonin; Ikaran; Orstanorm; Verladyn

>  <JCHEM_ACCEPTOR_COUNT>  (1) 
6

>  <JCHEM_AVERAGE_POLARIZABILITY>  (1) 
63.30311653380885

>  <JCHEM_BIOAVAILABILITY>  (1) 
1

>  <JCHEM_DONOR_COUNT>  (1) 
3

>  <JCHEM_FORMAL_CHARGE>  (1) 
0

>  <JCHEM_GHOSE_FILTER>  (1) 
0

>  <JCHEM_IUPAC>  (1) 
(2R,4R,7R)-N-[(1S,2S,4R,7S)-7-benzyl-2-hydroxy-4-methyl-5,8-dioxo-3-oxa-6,9-diazatricyclo[7.3.0.0²,⁶]dodecan-4-yl]-6-methyl-6,11-diazatetracyclo[7.6.1.0²,⁷.0¹²,¹⁶]hexadeca-1(16),9,12,14-tetraene-4-carboxamide

>  <JCHEM_LOGP>  (1) 
2.7116222909811363

>  <JCHEM_MDDR_LIKE_RULE>  (1) 
0

>  <JCHEM_NUMBER_OF_RINGS>  (1) 
8

>  <JCHEM_PHYSIOLOGICAL_CHARGE>  (1) 
1

>  <JCHEM_PKA>  (1) 
11.674687752899596

>  <JCHEM_PKA_STRONGEST_ACIDIC>  (1) 
9.712761266905385

>  <JCHEM_PKA_STRONGEST_BASIC>  (1) 
8.394791367163506

>  <JCHEM_POLAR_SURFACE_AREA>  (1) 
118.20999999999998

>  <JCHEM_REFRACTIVITY>  (1) 
159.39479999999992

>  <JCHEM_ROTATABLE_BOND_COUNT>  (1) 
4

>  <JCHEM_RULE_OF_FIVE>  (1) 
0

>  <JCHEM_TRADITIONAL_IUPAC>  (1) 
dihydroergotamine

>  <JCHEM_VEBER_RULE>  (1) 
0

>  <MOLECULAR_WEIGHT>  (1) 
583.6774

>  <PRODUCTS>  (1) 
D.H.E. 45; Dihydroergotamine (dhe), 1mg/ml; Dihydroergotamine Mesylate; Dihydroergotamine Mesylate Injection USP; Migranal; Migranal Nasal Spray 4mg/ml; PMS-dihydroergotamine

>  <SALTS>  (1) 
Dihydroergotamine mesylate; Dihydroergotamine tartrate

>  <SECONDARY_ACCESSION_NUMBERS>  (1) 
APRD00476; DB05743

>  <SMILES>  (1) 
[H][C@@]12CCCN1C(=O)[C@H](CC1=CC=CC=C1)N1C(=O)[C@](C)(NC(=O)[C@H]3CN(C)[C@]4([H])CC5=CNC6=CC=CC(=C56)[C@@]4([H])C3)O[C@@]21O

>  <SYNONYMS>  (1) 
(2R,4R,7R)-N-[(1S,2S,4R,7S)-7-benzyl-2-hydroxy-4-methyl-5,8-dioxo-3-oxa-6,9-diazatricyclo[7.3.0.02,6]dodecan-4-yl]-6-methyl-6,11-diazatetracyclo[7.6.1.02,7.012,16]hexadeca-1(16),9,12,14-tetraene-4-carboxamide; 9,10-dihydroergotamine; Dihidroergotamina; Dihydroergotamin; Dihydroergotamine; Dihydroergotaminum; Diidroergotamina

$$$$
