
     RDKit          2D

144147  0  0  0  0  0  0  0  0999 V2000
   -2.1439    4.2946    0.0000 C   0  0  0  0  0  0  0  0  0  0  0  0
   -2.1439    3.4697    0.0000 C   0  0  0  0  0  0  0  0  0  0  0  0
   -2.8583    4.7072    0.0000 C   0  0  0  0  0  0  0  0  0  0  0  0
   -2.8583    3.0571    0.0000 N   0  0  0  0  0  0  0  0  0  0  0  0
   -3.5729    4.2946    0.0000 C   0  0  0  0  0  0  0  0  0  0  0  0
   -3.5729    3.4697    0.0000 C   0  0  0  0  0  0  0  0  0  0  0  0
   -1.4291    3.0571    0.0000 C   0  0  0  0  0  0  0  0  0  0  0  0
   -1.4291    2.2321    0.0000 O   0  0  0  0  0  0  0  0  0  0  0  0
   -2.1439    1.8195    0.0000 O   0  0  0  0  0  0  0  0  0  0  0  0
   -2.8582    2.2321    0.0000 C   0  0  0  0  0  0  0  0  0  0  0  0
   -3.5728    1.8194    0.0000 C   0  0  0  0  0  0  0  0  0  0  0  0
   -4.2871    2.2319    0.0000 O   0  0  0  0  0  0  0  0  0  0  0  0
    0.0000    3.0571    0.0000 C   0  0  0  0  0  0  0  0  0  0  0  0
    0.0000    2.2321    0.0000 C   0  0  0  0  0  0  0  0  0  0  0  0
   -0.7148    3.4697    0.0000 O   0  0  0  0  0  0  0  0  0  0  0  0
    1.4288    3.0571    0.0000 C   0  0  0  0  0  0  0  0  0  0  0  0
    1.4288    2.2321    0.0000 O   0  0  0  0  0  0  0  0  0  0  0  0
    0.7144    3.4697    0.0000 C   0  0  0  0  0  0  0  0  0  0  0  0
    0.7144    1.8195    0.0000 C   0  0  0  0  0  0  0  0  0  0  0  0
    2.1435    4.2946    0.0000 C   0  0  0  0  0  0  0  0  0  0  0  0
    2.1435    3.4697    0.0000 C   0  0  0  0  0  0  0  0  0  0  0  0
    0.7145    4.2946    0.0000 C   0  0  0  0  0  0  0  0  0  0  0  0
    3.5727    4.2946    0.0000 C   0  0  0  0  0  0  0  0  0  0  0  0
    3.5727    3.4697    0.0000 C   0  0  0  0  0  0  0  0  0  0  0  0
    2.8580    4.7072    0.0000 C   0  0  0  0  0  0  0  0  0  0  0  0
    2.8580    3.0571    0.0000 C   0  0  0  0  0  0  0  0  0  0  0  0
   -2.8583    0.5820    0.0000 O   0  0  0  0  0  0  0  0  0  0  0  0
   -3.5728    0.9946    0.0000 C   0  0  0  0  0  0  0  0  0  0  0  0
   -2.8583   -0.2428    0.0000 C   0  0  0  0  0  0  0  0  0  0  0  0
   -3.5729   -0.6551    0.0000 C   0  0  0  0  0  0  0  0  0  0  0  0
   -4.2871    0.5821    0.0000 C   0  0  0  0  0  0  0  0  0  0  0  0
   -4.2873   -0.2426    0.0000 C   0  0  0  0  0  0  0  0  0  0  0  0
   -2.1439   -0.6553    0.0000 C   0  0  0  0  0  0  0  0  0  0  0  0
   -2.1439   -1.4805    0.0000 C   0  0  0  0  0  0  0  0  0  0  0  0
   -2.8583   -1.8930    0.0000 O   0  0  0  0  0  0  0  0  0  0  0  0
   -0.7148   -1.4805    0.0000 C   0  0  0  0  0  0  0  0  0  0  0  0
   -1.4294   -1.8930    0.0000 C   0  0  0  0  0  0  0  0  0  0  0  0
   -1.4294   -2.7180    0.0000 C   0  0  0  0  0  0  0  0  0  0  0  0
   -2.8583   -2.7178    0.0000 C   0  0  0  0  0  0  0  0  0  0  0  0
   -5.0016    0.9948    0.0000 C   0  0  0  0  0  0  0  0  0  0  0  0
    0.7144    0.9944    0.0000 C   0  0  0  0  0  0  0  0  0  0  0  0
   -0.0002    0.5820    0.0000 C   0  0  0  0  0  0  0  0  0  0  0  0
    1.4288    0.5818    0.0000 C   0  0  0  0  0  0  0  0  0  0  0  0
    1.4288   -0.2431    0.0000 C   0  0  0  0  0  0  0  0  0  0  0  0
    0.7144   -0.6556    0.0000 C   0  0  0  0  0  0  0  0  0  0  0  0
    2.1434   -0.6556    0.0000 C   0  0  0  0  0  0  0  0  0  0  0  0
    2.1434   -1.4807    0.0000 C   0  0  0  0  0  0  0  0  0  0  0  0
    1.4287   -1.8931    0.0000 O   0  0  0  0  0  0  0  0  0  0  0  0
    2.8580   -0.2431    0.0000 O   0  0  0  0  0  0  0  0  0  0  0  0
    2.8579   -1.8931    0.0000 C   0  0  0  0  0  0  0  0  0  0  0  0
   -0.7211   -3.1504    0.0000 C   0  0  0  0  0  0  0  0  0  0  0  0
   -0.7211   -4.1090    0.0000 C   0  0  0  0  0  0  0  0  0  0  0  0
    2.8579   -2.7182    0.0000 C   0  0  0  0  0  0  0  0  0  0  0  0
    2.1198   -3.1149    0.0000 C   0  0  0  0  0  0  0  0  0  0  0  0
    1.4288   -2.7180    0.0000 C   0  0  0  0  0  0  0  0  0  0  0  0
    3.5724   -1.4807    0.0000 O   0  0  0  0  0  0  0  0  0  0  0  0
   -0.0609   -4.4784    0.0000 C   0  0  0  0  0  0  0  0  0  0  0  0
    0.6540   -3.9833    0.0000 C   0  0  0  0  0  0  0  0  0  0  0  0
    1.5631   -3.9833    0.0000 C   0  0  0  0  0  0  0  0  0  0  0  0
    3.5772   -3.1032    0.0000 C   0  0  0  0  0  0  0  0  0  0  0  0
    4.2870    4.7072    0.0000 O   0  0  0  0  0  0  0  0  0  0  0  0
    4.2870    3.0571    0.0000 O   0  0  0  0  0  0  0  0  0  0  0  0
    5.0016    3.4696    0.0000 C   0  0  0  0  0  0  0  0  0  0  0  0
   -2.9085    1.4050    0.0000 O   0  0  0  0  0  0  0  0  0  0  0  0
    1.9590   -4.7073    0.0000 C   0  0  0  0  0  0  0  0  0  0  0  0
    0.0000    0.0000    0.0000 H   0  0  0  0  0  0  0  0  0  0  0  0
    0.0000    0.0000    0.0000 H   0  0  0  0  0  0  0  0  0  0  0  0
    0.0000    0.0000    0.0000 H   0  0  0  0  0  0  0  0  0  0  0  0
    0.0000    0.0000    0.0000 H   0  0  0  0  0  0  0  0  0  0  0  0
    0.0000    0.0000    0.0000 H   0  0  0  0  0  0  0  0  0  0  0  0
    0.0000    0.0000    0.0000 H   0  0  0  0  0  0  0  0  0  0  0  0
    0.0000    0.0000    0.0000 H   0  0  0  0  0  0  0  0  0  0  0  0
    0.0000    0.0000    0.0000 H   0  0  0  0  0  0  0  0  0  0  0  0
    0.0000    0.0000    0.0000 H   0  0  0  0  0  0  0  0  0  0  0  0
    0.0000    0.0000    0.0000 H   0  0  0  0  0  0  0  0  0  0  0  0
    0.0000    0.0000    0.0000 H   0  0  0  0  0  0  0  0  0  0  0  0
    0.0000    0.0000    0.0000 H   0  0  0  0  0  0  0  0  0  0  0  0
    0.0000    0.0000    0.0000 H   0  0  0  0  0  0  0  0  0  0  0  0
    0.0000    0.0000    0.0000 H   0  0  0  0  0  0  0  0  0  0  0  0
    0.0000    0.0000    0.0000 H   0  0  0  0  0  0  0  0  0  0  0  0
    0.0000    0.0000    0.0000 H   0  0  0  0  0  0  0  0  0  0  0  0
    0.0000    0.0000    0.0000 H   0  0  0  0  0  0  0  0  0  0  0  0
    0.0000    0.0000    0.0000 H   0  0  0  0  0  0  0  0  0  0  0  0
    0.0000    0.0000    0.0000 H   0  0  0  0  0  0  0  0  0  0  0  0
    0.0000    0.0000    0.0000 H   0  0  0  0  0  0  0  0  0  0  0  0
    0.0000    0.0000    0.0000 H   0  0  0  0  0  0  0  0  0  0  0  0
    0.0000    0.0000    0.0000 H   0  0  0  0  0  0  0  0  0  0  0  0
    0.0000    0.0000    0.0000 H   0  0  0  0  0  0  0  0  0  0  0  0
    0.0000    0.0000    0.0000 H   0  0  0  0  0  0  0  0  0  0  0  0
    0.0000    0.0000    0.0000 H   0  0  0  0  0  0  0  0  0  0  0  0
    0.0000    0.0000    0.0000 H   0  0  0  0  0  0  0  0  0  0  0  0
    0.0000    0.0000    0.0000 H   0  0  0  0  0  0  0  0  0  0  0  0
    0.0000    0.0000    0.0000 H   0  0  0  0  0  0  0  0  0  0  0  0
    0.0000    0.0000    0.0000 H   0  0  0  0  0  0  0  0  0  0  0  0
    0.0000    0.0000    0.0000 H   0  0  0  0  0  0  0  0  0  0  0  0
    0.0000    0.0000    0.0000 H   0  0  0  0  0  0  0  0  0  0  0  0
    0.0000    0.0000    0.0000 H   0  0  0  0  0  0  0  0  0  0  0  0
    0.0000    0.0000    0.0000 H   0  0  0  0  0  0  0  0  0  0  0  0
    0.0000    0.0000    0.0000 H   0  0  0  0  0  0  0  0  0  0  0  0
    0.0000    0.0000    0.0000 H   0  0  0  0  0  0  0  0  0  0  0  0
    0.0000    0.0000    0.0000 H   0  0  0  0  0  0  0  0  0  0  0  0
    0.0000    0.0000    0.0000 H   0  0  0  0  0  0  0  0  0  0  0  0
    0.0000    0.0000    0.0000 H   0  0  0  0  0  0  0  0  0  0  0  0
    0.0000    0.0000    0.0000 H   0  0  0  0  0  0  0  0  0  0  0  0
    0.0000    0.0000    0.0000 H   0  0  0  0  0  0  0  0  0  0  0  0
    0.0000    0.0000    0.0000 H   0  0  0  0  0  0  0  0  0  0  0  0
    0.0000    0.0000    0.0000 H   0  0  0  0  0  0  0  0  0  0  0  0
    0.0000    0.0000    0.0000 H   0  0  0  0  0  0  0  0  0  0  0  0
    0.0000    0.0000    0.0000 H   0  0  0  0  0  0  0  0  0  0  0  0
    0.0000    0.0000    0.0000 H   0  0  0  0  0  0  0  0  0  0  0  0
    0.0000    0.0000    0.0000 H   0  0  0  0  0  0  0  0  0  0  0  0
    0.0000    0.0000    0.0000 H   0  0  0  0  0  0  0  0  0  0  0  0
    0.0000    0.0000    0.0000 H   0  0  0  0  0  0  0  0  0  0  0  0
    0.0000    0.0000    0.0000 H   0  0  0  0  0  0  0  0  0  0  0  0
    0.0000    0.0000    0.0000 H   0  0  0  0  0  0  0  0  0  0  0  0
    0.0000    0.0000    0.0000 H   0  0  0  0  0  0  0  0  0  0  0  0
    0.0000    0.0000    0.0000 H   0  0  0  0  0  0  0  0  0  0  0  0
    0.0000    0.0000    0.0000 H   0  0  0  0  0  0  0  0  0  0  0  0
    0.0000    0.0000    0.0000 H   0  0  0  0  0  0  0  0  0  0  0  0
    0.0000    0.0000    0.0000 H   0  0  0  0  0  0  0  0  0  0  0  0
    0.0000    0.0000    0.0000 H   0  0  0  0  0  0  0  0  0  0  0  0
    0.0000    0.0000    0.0000 H   0  0  0  0  0  0  0  0  0  0  0  0
    0.0000    0.0000    0.0000 H   0  0  0  0  0  0  0  0  0  0  0  0
    0.0000    0.0000    0.0000 H   0  0  0  0  0  0  0  0  0  0  0  0
    0.0000    0.0000    0.0000 H   0  0  0  0  0  0  0  0  0  0  0  0
    0.0000    0.0000    0.0000 H   0  0  0  0  0  0  0  0  0  0  0  0
    0.0000    0.0000    0.0000 H   0  0  0  0  0  0  0  0  0  0  0  0
    0.0000    0.0000    0.0000 H   0  0  0  0  0  0  0  0  0  0  0  0
    0.0000    0.0000    0.0000 H   0  0  0  0  0  0  0  0  0  0  0  0
    0.0000    0.0000    0.0000 H   0  0  0  0  0  0  0  0  0  0  0  0
    0.0000    0.0000    0.0000 H   0  0  0  0  0  0  0  0  0  0  0  0
    0.0000    0.0000    0.0000 H   0  0  0  0  0  0  0  0  0  0  0  0
    0.0000    0.0000    0.0000 H   0  0  0  0  0  0  0  0  0  0  0  0
    0.0000    0.0000    0.0000 H   0  0  0  0  0  0  0  0  0  0  0  0
    0.0000    0.0000    0.0000 H   0  0  0  0  0  0  0  0  0  0  0  0
    0.0000    0.0000    0.0000 H   0  0  0  0  0  0  0  0  0  0  0  0
    0.0000    0.0000    0.0000 H   0  0  0  0  0  0  0  0  0  0  0  0
    0.0000    0.0000    0.0000 H   0  0  0  0  0  0  0  0  0  0  0  0
    0.0000    0.0000    0.0000 H   0  0  0  0  0  0  0  0  0  0  0  0
    0.0000    0.0000    0.0000 H   0  0  0  0  0  0  0  0  0  0  0  0
    0.0000    0.0000    0.0000 H   0  0  0  0  0  0  0  0  0  0  0  0
    0.0000    0.0000    0.0000 H   0  0  0  0  0  0  0  0  0  0  0  0
    0.0000    0.0000    0.0000 H   0  0  0  0  0  0  0  0  0  0  0  0
    0.0000    0.0000    0.0000 H   0  0  0  0  0  0  0  0  0  0  0  0
  2  1  1  0
  3  1  1  0
  5  3  1  0
  6  5  1  0
  2  7  1  0
  4  2  1  0
  6  4  1  0
 10  4  1  0
 12 11  2  0
 15 13  1  0
  7 15  1  0
  8  7  2  0
 19 17  2  0
 13 18  1  0
 14 13  1  0
 21 16  1  6
 18 16  1  6
 18 22  1  0
 24 23  1  0
 25 23  1  0
 26 24  1  0
 20 25  1  0
 21 26  1  0
 21 20  1  0
 10  9  2  0
 11 10  1  0
 28 11  1  0
 29 27  1  0
 28 27  1  0
 31 28  1  0
 32 30  1  0
 32 31  1  0
 29 33  1  0
 30 29  1  0
 37 36  1  0
 34 33  1  0
 38 37  2  0
 34 37  1  0
 34 35  1  6
 39 35  1  0
 31 40  1  6
 41 19  1  0
 14 19  1  0
 44 43  2  0
 41 43  1  0
 41 42  1  1
 47 46  1  0
 44 46  1  0
 45 44  1  0
 46 49  1  6
 47 50  1  0
 51 38  1  0
 52 51  2  0
 53 50  1  0
 54 53  1  0
 47 48  1  6
 55 48  1  0
 56 50  2  0
 57 52  1  0
 58 57  2  0
 59 58  1  0
 54 59  1  0
 53 60  1  1
 23 61  1  6
 24 62  1  6
 63 62  1  0
 28 64  1  1
 59 65  1  1
  1 66  1  0
  1 67  1  0
  2 68  1  6
  3 69  1  0
  3 70  1  0
  5 71  1  0
  5 72  1  0
  6 73  1  0
  6 74  1  0
 13 75  1  6
 14 76  1  0
 14 77  1  0
 16 78  1  0
 16 79  1  0
 18 80  1  0
 20 81  1  0
 20 82  1  0
 21 83  1  0
 22 84  1  0
 22 85  1  0
 22 86  1  0
 23 87  1  0
 24 88  1  0
 25 89  1  0
 25 90  1  0
 26 91  1  0
 26 92  1  0
 29 93  1  1
 30 94  1  0
 30 95  1  0
 31 96  1  0
 32 97  1  0
 32 98  1  0
 33 99  1  0
 33100  1  0
 34101  1  0
 36102  1  0
 36103  1  0
 36104  1  0
 38105  1  0
 39106  1  0
 39107  1  0
 39108  1  0
 40109  1  0
 40110  1  0
 40111  1  0
 41112  1  0
 42113  1  0
 42114  1  0
 42115  1  0
 43116  1  0
 45117  1  0
 45118  1  0
 45119  1  0
 46120  1  0
 47121  1  0
 49122  1  0
 51123  1  0
 52124  1  0
 53125  1  0
 54126  1  0
 54127  1  0
 55128  1  0
 55129  1  0
 55130  1  0
 57131  1  0
 58132  1  0
 59133  1  0
 60134  1  0
 60135  1  0
 60136  1  0
 61137  1  0
 63138  1  0
 63139  1  0
 63140  1  0
 64141  1  0
 65142  1  0
 65143  1  0
 65144  1  0
M  END
>  <ALOGPS_LOGP>  (1) 
4.85

>  <ALOGPS_LOGS>  (1) 
-5.72

>  <ALOGPS_SOLUBILITY>  (1) 
1.73e-03 g/l

>  <DATABASE_ID>  (1) 
DB00877

>  <DATABASE_NAME>  (1) 
drugbank

>  <DRUGBANK_ID>  (1) 
DB00877

>  <DRUG_GROUPS>  (1) 
approved; investigational

>  <EXACT_MASS>  (1) 
913.555141608

>  <FORMULA>  (1) 
C51H79NO13

>  <GENERIC_NAME>  (1) 
Sirolimus

>  <INCHI_IDENTIFIER>  (1) 
InChI=1S/C51H79NO13/c1-30-16-12-11-13-17-31(2)42(61-8)28-38-21-19-36(7)51(60,65-38)48(57)49(58)52-23-15-14-18-39(52)50(59)64-43(33(4)26-37-20-22-40(53)44(27-37)62-9)29-41(54)32(3)25-35(6)46(56)47(63-10)45(55)34(5)24-30/h11-13,16-17,25,30,32-34,36-40,42-44,46-47,53,56,60H,14-15,18-24,26-29H2,1-10H3/b13-11+,16-12+,31-17+,35-25+/t30-,32-,33-,34-,36-,37+,38+,39+,40-,42+,43+,44-,46-,47+,51-/m1/s1

>  <INCHI_KEY>  (1) 
QFJCIRLUMZQUOT-HPLJOQBZSA-N

>  <JCHEM_ACCEPTOR_COUNT>  (1) 
12

>  <JCHEM_ATOM_COUNT>  (1) 
144

>  <JCHEM_AVERAGE_POLARIZABILITY>  (1) 
101.7426676674582

>  <JCHEM_BIOAVAILABILITY>  (1) 
0

>  <JCHEM_DONOR_COUNT>  (1) 
3

>  <JCHEM_FORMAL_CHARGE>  (1) 
0

>  <JCHEM_GHOSE_FILTER>  (1) 
0

>  <JCHEM_IUPAC>  (1) 
(1R,9S,12S,15R,16E,18R,19R,21R,23S,24E,26E,28E,30S,32S,35R)-1,18-dihydroxy-12-[(2R)-1-[(1S,3R,4R)-4-hydroxy-3-methoxycyclohexyl]propan-2-yl]-19,30-dimethoxy-15,17,21,23,29,35-hexamethyl-11,36-dioxa-4-azatricyclo[30.3.1.0^{4,9}]hexatriaconta-16,24,26,28-tetraene-2,3,10,14,20-pentone

>  <JCHEM_LOGP>  (1) 
7.45083982266667

>  <JCHEM_MDDR_LIKE_RULE>  (1) 
1

>  <JCHEM_NUMBER_OF_RINGS>  (1) 
4

>  <JCHEM_PHYSIOLOGICAL_CHARGE>  (1) 
0

>  <JCHEM_PKA>  (1) 
13.368197872426823

>  <JCHEM_PKA_STRONGEST_ACIDIC>  (1) 
9.963727691413887

>  <JCHEM_PKA_STRONGEST_BASIC>  (1) 
-3.040520864948703

>  <JCHEM_POLAR_SURFACE_AREA>  (1) 
195.42999999999998

>  <JCHEM_REFRACTIVITY>  (1) 
250.6632000000001

>  <JCHEM_ROTATABLE_BOND_COUNT>  (1) 
6

>  <JCHEM_RULE_OF_FIVE>  (1) 
0

>  <JCHEM_TRADITIONAL_IUPAC>  (1) 
(1R,9S,12S,15R,16E,18R,19R,21R,23S,24E,26E,28E,30S,32S,35R)-1,18-dihydroxy-12-[(2R)-1-[(1S,3R,4R)-4-hydroxy-3-methoxycyclohexyl]propan-2-yl]-19,30-dimethoxy-15,17,21,23,29,35-hexamethyl-11,36-dioxa-4-azatricyclo[30.3.1.0^{4,9}]hexatriaconta-16,24,26,28-tetraene-2,3,10,14,20-pentone

>  <JCHEM_VEBER_RULE>  (1) 
0

>  <MOLECULAR_WEIGHT>  (1) 
914.187

>  <PRODUCTS>  (1) 
Gd-sirolimus; Rapamune; Rapamune Oral Solution; Sirolimus

>  <SECONDARY_ACCESSION_NUMBERS>  (1) 
APRD00178; DB02439

>  <SMILES>  (1) 
[H][C@@]1(C[C@@H](C)[C@]2([H])CC(=O)[C@H](C)\C=C(C)\[C@@H](O)[C@@H](OC)C(=O)[C@H](C)C[C@H](C)\C=C\C=C\C=C(C)\[C@H](C[C@]3([H])CC[C@@H](C)[C@@](O)(O3)C(=O)C(=O)N3CCCC[C@@]3([H])C(=O)O2)OC)CC[C@@H](O)[C@@H](C1)OC

>  <SYNONYMS>  (1) 
(-)-Rapamycin; Rapamycin; sirolimÃºs; sirolimus; sirolimusum

$$$$
