714
     RDKit          2D

 37 40  0  0  1  0  0  0  0  0999 V2000
    3.4218    1.3849    0.0000 O   0  0  0  0  0  0  0  0  0  0  0  0
    2.0105    0.5846    0.0000 O   0  0  0  0  0  0  0  0  0  0  0  0
    6.1725   -1.0164    0.0000 N   0  0  0  0  0  0  0  0  0  0  0  0
    5.4927   -0.6228    0.0000 C   0  0  0  0  0  0  0  0  0  0  0  0
    5.4927    0.1694    0.0000 C   0  0  0  0  0  0  0  0  0  0  0  0
    4.8067   -1.0188    0.0000 C   0  0  0  0  0  0  0  0  0  0  0  0
    6.2135    0.5708    0.0000 C   0  0  0  0  0  0  0  0  0  0  0  0
    6.8581   -0.6328    0.0000 C   0  0  0  0  0  0  0  0  0  0  0  0
    6.8784    0.1524    0.0000 C   0  0  0  0  0  0  0  0  0  0  0  0
    4.8067    0.5654    0.0000 C   0  0  0  0  0  0  0  0  0  0  0  0
    4.1207   -0.6228    0.0000 C   0  0  0  0  0  0  0  0  0  0  0  0
    4.1207    0.1694    0.0000 C   0  0  0  0  0  0  0  0  0  0  0  0
    6.1667   -1.8084    0.0000 C   0  0  0  0  0  0  0  0  0  0  0  0
    6.2199    1.3959    0.0000 C   0  0  0  0  0  0  0  0  0  0  0  0
    4.7940    1.3904    0.0000 C   0  0  0  0  0  0  0  0  0  0  0  0
    3.4126   -1.0462    0.0000 C   0  0  0  0  0  0  0  0  0  0  0  0
    3.4126    0.5929    0.0000 C   0  0  0  0  0  0  0  0  0  0  0  0
    5.5053    1.8084    0.0000 C   0  0  0  0  0  0  0  0  0  0  0  0
    2.6949    0.1858    0.0000 C   0  0  0  0  0  0  0  0  0  0  0  0
    2.6949   -0.6392    0.0000 C   0  0  0  0  0  0  0  0  0  0  0  0
    0.0000    0.0000    0.0000 H   0  0  0  0  0  0  0  0  0  0  0  0
    0.0000    0.0000    0.0000 H   0  0  0  0  0  0  0  0  0  0  0  0
    0.0000    0.0000    0.0000 H   0  0  0  0  0  0  0  0  0  0  0  0
    0.0000    0.0000    0.0000 H   0  0  0  0  0  0  0  0  0  0  0  0
    0.0000    0.0000    0.0000 H   0  0  0  0  0  0  0  0  0  0  0  0
    0.0000    0.0000    0.0000 H   0  0  0  0  0  0  0  0  0  0  0  0
    0.0000    0.0000    0.0000 H   0  0  0  0  0  0  0  0  0  0  0  0
    0.0000    0.0000    0.0000 H   0  0  0  0  0  0  0  0  0  0  0  0
    0.0000    0.0000    0.0000 H   0  0  0  0  0  0  0  0  0  0  0  0
    0.0000    0.0000    0.0000 H   0  0  0  0  0  0  0  0  0  0  0  0
    0.0000    0.0000    0.0000 H   0  0  0  0  0  0  0  0  0  0  0  0
    0.0000    0.0000    0.0000 H   0  0  0  0  0  0  0  0  0  0  0  0
    0.0000    0.0000    0.0000 H   0  0  0  0  0  0  0  0  0  0  0  0
    0.0000    0.0000    0.0000 H   0  0  0  0  0  0  0  0  0  0  0  0
    0.0000    0.0000    0.0000 H   0  0  0  0  0  0  0  0  0  0  0  0
    0.0000    0.0000    0.0000 H   0  0  0  0  0  0  0  0  0  0  0  0
    0.0000    0.0000    0.0000 H   0  0  0  0  0  0  0  0  0  0  0  0
  1 17  1  0
  2 19  1  0
  3  4  1  0
  3  8  1  0
  3 13  1  0
  4  5  1  0
  4  6  1  0
  5  7  2  0
  5 10  1  0
  6 11  1  0
  7  9  1  0
  7 14  1  0
  8  9  1  0
 10 12  1  0
 10 15  2  0
 11 12  2  0
 11 16  1  0
 12 17  1  0
 14 18  2  0
 15 18  1  0
 16 20  2  0
 17 19  2  0
 19 20  1  0
  1 21  1  0
  2 22  1  0
  4 23  1  1
  6 24  1  0
  6 25  1  0
  8 26  1  0
  8 27  1  0
  9 28  1  0
  9 29  1  0
 13 30  1  0
 13 31  1  0
 13 32  1  0
 14 33  1  0
 15 34  1  0
 16 35  1  0
 18 36  1  0
 20 37  1  0
M  END
>  <ALOGPS_LOGP>  (1) 
2.51

>  <ALOGPS_LOGS>  (1) 
-2.72

>  <ALOGPS_SOLUBILITY>  (1) 
5.10e-01 g/l

>  <DATABASE_ID>  (1) 
DB00714

>  <DATABASE_NAME>  (1) 
drugbank

>  <DRUGBANK_ID>  (1) 
DB00714

>  <DRUG_GROUPS>  (1) 
approved; investigational

>  <EXACT_MASS>  (1) 
267.125928793

>  <FORMULA>  (1) 
C17H17NO2

>  <GENERIC_NAME>  (1) 
Apomorphine

>  <INCHI_IDENTIFIER>  (1) 
InChI=1S/C17H17NO2/c1-18-8-7-10-3-2-4-12-15(10)13(18)9-11-5-6-14(19)17(20)16(11)12/h2-6,13,19-20H,7-9H2,1H3/t13-/m1/s1

>  <INCHI_KEY>  (1) 
VMWNQDUVQKEIOC-CYBMUJFWSA-N

>  <INTERNATIONAL_BRANDS>  (1) 
Ixense; Spontane; Uprima

>  <JCHEM_ACCEPTOR_COUNT>  (1) 
3

>  <JCHEM_AVERAGE_POLARIZABILITY>  (1) 
29.695470918767093

>  <JCHEM_BIOAVAILABILITY>  (1) 
1

>  <JCHEM_DONOR_COUNT>  (1) 
2

>  <JCHEM_FORMAL_CHARGE>  (1) 
0

>  <JCHEM_GHOSE_FILTER>  (1) 
1

>  <JCHEM_IUPAC>  (1) 
(9R)-10-methyl-10-azatetracyclo[7.7.1.0²,⁷.0¹³,¹⁷]heptadeca-1(16),2(7),3,5,13(17),14-hexaene-3,4-diol

>  <JCHEM_LOGP>  (1) 
2.8666352302639715

>  <JCHEM_MDDR_LIKE_RULE>  (1) 
0

>  <JCHEM_NUMBER_OF_RINGS>  (1) 
4

>  <JCHEM_PHYSIOLOGICAL_CHARGE>  (1) 
0

>  <JCHEM_PKA>  (1) 
12.675522487307173

>  <JCHEM_PKA_STRONGEST_ACIDIC>  (1) 
6.576138261328986

>  <JCHEM_PKA_STRONGEST_BASIC>  (1) 
13.248854491119767

>  <JCHEM_POLAR_SURFACE_AREA>  (1) 
43.7

>  <JCHEM_REFRACTIVITY>  (1) 
79.98810000000002

>  <JCHEM_ROTATABLE_BOND_COUNT>  (1) 
0

>  <JCHEM_RULE_OF_FIVE>  (1) 
1

>  <JCHEM_TRADITIONAL_IUPAC>  (1) 
apomorphine

>  <JCHEM_VEBER_RULE>  (1) 
0

>  <MOLECULAR_WEIGHT>  (1) 
267.3224

>  <PRODUCTS>  (1) 
Apokyn; Movapo

>  <SALTS>  (1) 
Apomorphine hydrochloride

>  <SECONDARY_ACCESSION_NUMBERS>  (1) 
APRD00531; DB05816

>  <SMILES>  (1) 
[H][C@]12CC3=C(C(O)=C(O)C=C3)C3=CC=CC(CCN1C)=C23

>  <SYNONYMS>  (1) 
(−)-10,11-dihydroxyaporphine; Apomorphin; R-(−)-apomorphine

$$$$
