1116
     RDKit          2D

 51 55  0  0  1  0  0  0  0  0999 V2000
    2.9779    1.7856    0.0000 S   0  0  0  0  0  0  0  0  0  0  0  0
    4.9509   -0.9300    0.0000 O   0  0  0  0  0  0  0  0  0  0  0  0
    3.6458   -0.2633    0.0000 N   0  0  0  0  0  0  0  0  0  0  0  0
    4.7200    0.5172    0.0000 N   0  0  0  0  0  0  0  0  0  0  0  0
    3.3904    0.5160    0.0000 C   0  0  0  0  0  0  0  0  0  0  0  0
    2.7228    1.0010    0.0000 C   0  0  0  0  0  0  0  0  0  0  0  0
    4.0578    1.0010    0.0000 C   0  0  0  0  0  0  0  0  0  0  0  0
    3.8029    1.7856    0.0000 C   0  0  0  0  0  0  0  0  0  0  0  0
    1.9028    1.0031    0.0000 C   0  0  0  0  0  0  0  0  0  0  0  0
    2.3131    2.2660    0.0000 C   0  0  0  0  0  0  0  0  0  0  0  0
    1.6500    1.7833    0.0000 C   0  0  0  0  0  0  0  0  0  0  0  0
    4.4659   -0.2625    0.0000 C   0  0  0  0  0  0  0  0  0  0  0  0
    3.1620   -0.9315    0.0000 C   0  0  0  0  0  0  0  0  0  0  0  0
    5.5051    0.7708    0.0000 C   0  0  0  0  0  0  0  0  0  0  0  0
    3.4988   -1.6847    0.0000 C   0  0  0  0  0  0  0  0  0  0  0  0
    5.6780    1.5775    0.0000 C   0  0  0  0  0  0  0  0  0  0  0  0
    4.3195   -1.7695    0.0000 C   0  0  0  0  0  0  0  0  0  0  0  0
    3.0151   -2.3529    0.0000 C   0  0  0  0  0  0  0  0  0  0  0  0
    5.0659    2.1306    0.0000 C   0  0  0  0  0  0  0  0  0  0  0  0
    6.4631    1.8310    0.0000 C   0  0  0  0  0  0  0  0  0  0  0  0
    4.6564   -2.5225    0.0000 C   0  0  0  0  0  0  0  0  0  0  0  0
    3.3520   -3.1060    0.0000 C   0  0  0  0  0  0  0  0  0  0  0  0
    5.2388    2.9373    0.0000 C   0  0  0  0  0  0  0  0  0  0  0  0
    6.6360    2.6377    0.0000 C   0  0  0  0  0  0  0  0  0  0  0  0
    4.1726   -3.1909    0.0000 C   0  0  0  0  0  0  0  0  0  0  0  0
    6.0239    3.1909    0.0000 C   0  0  0  0  0  0  0  0  0  0  0  0
    0.0000    0.0000    0.0000 H   0  0  0  0  0  0  0  0  0  0  0  0
    0.0000    0.0000    0.0000 H   0  0  0  0  0  0  0  0  0  0  0  0
    0.0000    0.0000    0.0000 H   0  0  0  0  0  0  0  0  0  0  0  0
    0.0000    0.0000    0.0000 H   0  0  0  0  0  0  0  0  0  0  0  0
    0.0000    0.0000    0.0000 H   0  0  0  0  0  0  0  0  0  0  0  0
    0.0000    0.0000    0.0000 H   0  0  0  0  0  0  0  0  0  0  0  0
    0.0000    0.0000    0.0000 H   0  0  0  0  0  0  0  0  0  0  0  0
    0.0000    0.0000    0.0000 H   0  0  0  0  0  0  0  0  0  0  0  0
    0.0000    0.0000    0.0000 H   0  0  0  0  0  0  0  0  0  0  0  0
    0.0000    0.0000    0.0000 H   0  0  0  0  0  0  0  0  0  0  0  0
    0.0000    0.0000    0.0000 H   0  0  0  0  0  0  0  0  0  0  0  0
    0.0000    0.0000    0.0000 H   0  0  0  0  0  0  0  0  0  0  0  0
    0.0000    0.0000    0.0000 H   0  0  0  0  0  0  0  0  0  0  0  0
    0.0000    0.0000    0.0000 H   0  0  0  0  0  0  0  0  0  0  0  0
    0.0000    0.0000    0.0000 H   0  0  0  0  0  0  0  0  0  0  0  0
    0.0000    0.0000    0.0000 H   0  0  0  0  0  0  0  0  0  0  0  0
    0.0000    0.0000    0.0000 H   0  0  0  0  0  0  0  0  0  0  0  0
    0.0000    0.0000    0.0000 H   0  0  0  0  0  0  0  0  0  0  0  0
    0.0000    0.0000    0.0000 H   0  0  0  0  0  0  0  0  0  0  0  0
    0.0000    0.0000    0.0000 H   0  0  0  0  0  0  0  0  0  0  0  0
    0.0000    0.0000    0.0000 H   0  0  0  0  0  0  0  0  0  0  0  0
    0.0000    0.0000    0.0000 H   0  0  0  0  0  0  0  0  0  0  0  0
    0.0000    0.0000    0.0000 H   0  0  0  0  0  0  0  0  0  0  0  0
    0.0000    0.0000    0.0000 H   0  0  0  0  0  0  0  0  0  0  0  0
    0.0000    0.0000    0.0000 H   0  0  0  0  0  0  0  0  0  0  0  0
  1  6  1  0
  1  8  1  0
  1 10  1  0
  2 12  2  0
  3  5  1  0
  3 12  1  0
  3 13  1  0
  4  7  1  0
  4 12  1  0
  4 14  1  0
  5  6  1  0
  5  7  1  0
  6  9  1  0
  7  8  1  0
  9 11  1  0
 10 11  1  0
 13 15  1  0
 14 16  1  0
 15 17  2  0
 15 18  1  0
 16 19  2  0
 16 20  1  0
 17 21  1  0
 18 22  2  0
 19 23  1  0
 20 24  2  0
 21 25  2  0
 22 25  1  0
 23 26  2  0
 24 26  1  0
  5 27  1  0
  6 28  1  0
  7 29  1  0
  8 30  1  0
  8 31  1  0
  9 32  1  0
  9 33  1  0
 10 34  1  0
 10 35  1  0
 11 36  1  0
 11 37  1  0
 13 38  1  0
 13 39  1  0
 14 40  1  0
 14 41  1  0
 17 42  1  0
 18 43  1  0
 19 44  1  0
 20 45  1  0
 21 46  1  0
 22 47  1  0
 23 48  1  0
 24 49  1  0
 25 50  1  0
 26 51  1  0
M  CHG  1   1   1
M  END
>  <ALOGPS_LOGP>  (1) 
4.40

>  <ALOGPS_LOGS>  (1) 
-4.78

>  <ALOGPS_SOLUBILITY>  (1) 
6.65e-03 g/l

>  <DATABASE_ID>  (1) 
DB01116

>  <DATABASE_NAME>  (1) 
drugbank

>  <DRUGBANK_ID>  (1) 
DB01116

>  <DRUG_GROUPS>  (1) 
approved; investigational

>  <EXACT_MASS>  (1) 
365.168759122

>  <FORMULA>  (1) 
C22H25N2OS

>  <GENERIC_NAME>  (1) 
Trimethaphan

>  <INCHI_IDENTIFIER>  (1) 
InChI=1S/C22H25N2OS/c25-22-23(14-17-8-3-1-4-9-17)19-16-26-13-7-12-20(26)21(19)24(22)15-18-10-5-2-6-11-18/h1-6,8-11,19-21H,7,12-16H2/q+1

>  <INCHI_KEY>  (1) 
CHQOEHPMXSHGCL-UHFFFAOYSA-N

>  <JCHEM_ACCEPTOR_COUNT>  (1) 
1

>  <JCHEM_AVERAGE_POLARIZABILITY>  (1) 
40.13415435906711

>  <JCHEM_BIOAVAILABILITY>  (1) 
1

>  <JCHEM_DONOR_COUNT>  (1) 
0

>  <JCHEM_FORMAL_CHARGE>  (1) 
1

>  <JCHEM_GHOSE_FILTER>  (1) 
1

>  <JCHEM_IUPAC>  (1) 
3,5-dibenzyl-4-oxo-8λ⁴-thia-3,5-diazatricyclo[6.3.0.0²,⁶]undecan-8-ylium

>  <JCHEM_LOGP>  (1) 
2.324136726457387

>  <JCHEM_MDDR_LIKE_RULE>  (1) 
0

>  <JCHEM_NUMBER_OF_RINGS>  (1) 
5

>  <JCHEM_PHYSIOLOGICAL_CHARGE>  (1) 
1

>  <JCHEM_PKA_STRONGEST_BASIC>  (1) 
-1.99444997108513

>  <JCHEM_POLAR_SURFACE_AREA>  (1) 
23.550000000000004

>  <JCHEM_REFRACTIVITY>  (1) 
105.43010000000004

>  <JCHEM_ROTATABLE_BOND_COUNT>  (1) 
4

>  <JCHEM_RULE_OF_FIVE>  (1) 
1

>  <JCHEM_TRADITIONAL_IUPAC>  (1) 
trimethaphan

>  <JCHEM_VEBER_RULE>  (1) 
1

>  <MOLECULAR_WEIGHT>  (1) 
365.512

>  <SALTS>  (1) 
Trimethaphan camsylate

>  <SECONDARY_ACCESSION_NUMBERS>  (1) 
APRD00044

>  <SMILES>  (1) 
O=C1N(CC2=CC=CC=C2)C2C[S+]3CCCC3C2N1CC1=CC=CC=C1

>  <SYNONYMS>  (1) 
Trimetaphan; Trimetaphanum

$$$$
