1249
     RDKit          2D

106107  0  0  1  0  0  0  0  0999 V2000
    7.0944    2.3472    0.0000 I   0  0  0  0  0  0  0  0  0  0  0  0
    3.5220   -1.3654    0.0000 I   0  0  0  0  0  0  0  0  0  0  0  0
    8.5234   -0.1279    0.0000 I   0  0  0  0  0  0  0  0  0  0  0  0
    6.3799   -1.3654    0.0000 I   0  0  0  0  0  0  0  0  0  0  0  0
    9.9524    2.3472    0.0000 I   0  0  0  0  0  0  0  0  0  0  0  0
    4.9509   -3.8405    0.0000 I   0  0  0  0  0  0  0  0  0  0  0  0
    4.9509    1.1096    0.0000 O   0  0  0  0  0  0  0  0  0  0  0  0
    6.3799   -0.5404    0.0000 O   0  0  0  0  0  0  0  0  0  0  0  0
    3.5220   -0.5404    0.0000 O   0  0  0  0  0  0  0  0  0  0  0  0
    9.9524   -0.1279    0.0000 O   0  0  0  0  0  0  0  0  0  0  0  0
    7.0944   -2.6029    0.0000 O   0  0  0  0  0  0  0  0  0  0  0  0
    7.8089    3.5847    0.0000 O   0  0  0  0  0  0  0  0  0  0  0  0
    2.8075   -2.6029    0.0000 O   0  0  0  0  0  0  0  0  0  0  0  0
   12.0958    1.9347    0.0000 O   0  0  0  0  0  0  0  0  0  0  0  0
    6.3799   -5.4905    0.0000 O   0  0  0  0  0  0  0  0  0  0  0  0
   10.6668    4.4097    0.0000 O   0  0  0  0  0  0  0  0  0  0  0  0
    3.5220   -5.4905    0.0000 O   0  0  0  0  0  0  0  0  0  0  0  0
   13.5248    1.1096    0.0000 O   0  0  0  0  0  0  0  0  0  0  0  0
    7.8089   -6.3155    0.0000 O   0  0  0  0  0  0  0  0  0  0  0  0
   10.6668    6.0598    0.0000 O   0  0  0  0  0  0  0  0  0  0  0  0
    2.0930   -6.3155    0.0000 O   0  0  0  0  0  0  0  0  0  0  0  0
    7.0944    0.6971    0.0000 N   0  0  0  0  0  0  0  0  0  0  0  0
    4.9509   -0.5404    0.0000 N   0  0  0  0  0  0  0  0  0  0  0  0
   10.6668    1.1096    0.0000 N   0  0  0  0  0  0  0  0  0  0  0  0
    6.3799   -3.8405    0.0000 N   0  0  0  0  0  0  0  0  0  0  0  0
    9.2379    3.5847    0.0000 N   0  0  0  0  0  0  0  0  0  0  0  0
    3.5220   -3.8405    0.0000 N   0  0  0  0  0  0  0  0  0  0  0  0
    5.6655    0.6971    0.0000 C   0  0  0  0  0  0  0  0  0  0  0  0
    6.3799    1.1096    0.0000 C   0  0  0  0  0  0  0  0  0  0  0  0
    5.6655   -0.1279    0.0000 C   0  0  0  0  0  0  0  0  0  0  0  0
    7.8089    1.1096    0.0000 C   0  0  0  0  0  0  0  0  0  0  0  0
    4.9509   -1.3654    0.0000 C   0  0  0  0  0  0  0  0  0  0  0  0
    7.0944   -0.1279    0.0000 C   0  0  0  0  0  0  0  0  0  0  0  0
    4.2365   -0.1279    0.0000 C   0  0  0  0  0  0  0  0  0  0  0  0
    7.8089    1.9347    0.0000 C   0  0  0  0  0  0  0  0  0  0  0  0
    4.2365   -1.7779    0.0000 C   0  0  0  0  0  0  0  0  0  0  0  0
    8.5234    0.6971    0.0000 C   0  0  0  0  0  0  0  0  0  0  0  0
    5.6655   -1.7779    0.0000 C   0  0  0  0  0  0  0  0  0  0  0  0
    8.5234    2.3472    0.0000 C   0  0  0  0  0  0  0  0  0  0  0  0
    4.2365   -2.6029    0.0000 C   0  0  0  0  0  0  0  0  0  0  0  0
    9.2379    1.1096    0.0000 C   0  0  0  0  0  0  0  0  0  0  0  0
    5.6655   -2.6029    0.0000 C   0  0  0  0  0  0  0  0  0  0  0  0
    9.2379    1.9347    0.0000 C   0  0  0  0  0  0  0  0  0  0  0  0
    4.9509   -3.0154    0.0000 C   0  0  0  0  0  0  0  0  0  0  0  0
    7.8089   -0.5404    0.0000 C   0  0  0  0  0  0  0  0  0  0  0  0
    4.2365    0.6971    0.0000 C   0  0  0  0  0  0  0  0  0  0  0  0
    9.9524    0.6971    0.0000 C   0  0  0  0  0  0  0  0  0  0  0  0
    6.3799   -3.0154    0.0000 C   0  0  0  0  0  0  0  0  0  0  0  0
    8.5234    3.1722    0.0000 C   0  0  0  0  0  0  0  0  0  0  0  0
    3.5220   -3.0154    0.0000 C   0  0  0  0  0  0  0  0  0  0  0  0
   11.3814    0.6971    0.0000 C   0  0  0  0  0  0  0  0  0  0  0  0
    7.0944   -4.2530    0.0000 C   0  0  0  0  0  0  0  0  0  0  0  0
    9.2379    4.4097    0.0000 C   0  0  0  0  0  0  0  0  0  0  0  0
    2.8075   -4.2530    0.0000 C   0  0  0  0  0  0  0  0  0  0  0  0
   12.0958    1.1096    0.0000 C   0  0  0  0  0  0  0  0  0  0  0  0
    7.0944   -5.0780    0.0000 C   0  0  0  0  0  0  0  0  0  0  0  0
    9.9524    4.8222    0.0000 C   0  0  0  0  0  0  0  0  0  0  0  0
    2.8075   -5.0780    0.0000 C   0  0  0  0  0  0  0  0  0  0  0  0
   12.8103    0.6971    0.0000 C   0  0  0  0  0  0  0  0  0  0  0  0
    7.8089   -5.4905    0.0000 C   0  0  0  0  0  0  0  0  0  0  0  0
    9.9524    5.6472    0.0000 C   0  0  0  0  0  0  0  0  0  0  0  0
    2.0930   -5.4905    0.0000 C   0  0  0  0  0  0  0  0  0  0  0  0
    0.0000    0.0000    0.0000 H   0  0  0  0  0  0  0  0  0  0  0  0
    0.0000    0.0000    0.0000 H   0  0  0  0  0  0  0  0  0  0  0  0
    0.0000    0.0000    0.0000 H   0  0  0  0  0  0  0  0  0  0  0  0
    0.0000    0.0000    0.0000 H   0  0  0  0  0  0  0  0  0  0  0  0
    0.0000    0.0000    0.0000 H   0  0  0  0  0  0  0  0  0  0  0  0
    0.0000    0.0000    0.0000 H   0  0  0  0  0  0  0  0  0  0  0  0
    0.0000    0.0000    0.0000 H   0  0  0  0  0  0  0  0  0  0  0  0
    0.0000    0.0000    0.0000 H   0  0  0  0  0  0  0  0  0  0  0  0
    0.0000    0.0000    0.0000 H   0  0  0  0  0  0  0  0  0  0  0  0
    0.0000    0.0000    0.0000 H   0  0  0  0  0  0  0  0  0  0  0  0
    0.0000    0.0000    0.0000 H   0  0  0  0  0  0  0  0  0  0  0  0
    0.0000    0.0000    0.0000 H   0  0  0  0  0  0  0  0  0  0  0  0
    0.0000    0.0000    0.0000 H   0  0  0  0  0  0  0  0  0  0  0  0
    0.0000    0.0000    0.0000 H   0  0  0  0  0  0  0  0  0  0  0  0
    0.0000    0.0000    0.0000 H   0  0  0  0  0  0  0  0  0  0  0  0
    0.0000    0.0000    0.0000 H   0  0  0  0  0  0  0  0  0  0  0  0
    0.0000    0.0000    0.0000 H   0  0  0  0  0  0  0  0  0  0  0  0
    0.0000    0.0000    0.0000 H   0  0  0  0  0  0  0  0  0  0  0  0
    0.0000    0.0000    0.0000 H   0  0  0  0  0  0  0  0  0  0  0  0
    0.0000    0.0000    0.0000 H   0  0  0  0  0  0  0  0  0  0  0  0
    0.0000    0.0000    0.0000 H   0  0  0  0  0  0  0  0  0  0  0  0
    0.0000    0.0000    0.0000 H   0  0  0  0  0  0  0  0  0  0  0  0
    0.0000    0.0000    0.0000 H   0  0  0  0  0  0  0  0  0  0  0  0
    0.0000    0.0000    0.0000 H   0  0  0  0  0  0  0  0  0  0  0  0
    0.0000    0.0000    0.0000 H   0  0  0  0  0  0  0  0  0  0  0  0
    0.0000    0.0000    0.0000 H   0  0  0  0  0  0  0  0  0  0  0  0
    0.0000    0.0000    0.0000 H   0  0  0  0  0  0  0  0  0  0  0  0
    0.0000    0.0000    0.0000 H   0  0  0  0  0  0  0  0  0  0  0  0
    0.0000    0.0000    0.0000 H   0  0  0  0  0  0  0  0  0  0  0  0
    0.0000    0.0000    0.0000 H   0  0  0  0  0  0  0  0  0  0  0  0
    0.0000    0.0000    0.0000 H   0  0  0  0  0  0  0  0  0  0  0  0
    0.0000    0.0000    0.0000 H   0  0  0  0  0  0  0  0  0  0  0  0
    0.0000    0.0000    0.0000 H   0  0  0  0  0  0  0  0  0  0  0  0
    0.0000    0.0000    0.0000 H   0  0  0  0  0  0  0  0  0  0  0  0
    0.0000    0.0000    0.0000 H   0  0  0  0  0  0  0  0  0  0  0  0
    0.0000    0.0000    0.0000 H   0  0  0  0  0  0  0  0  0  0  0  0
    0.0000    0.0000    0.0000 H   0  0  0  0  0  0  0  0  0  0  0  0
    0.0000    0.0000    0.0000 H   0  0  0  0  0  0  0  0  0  0  0  0
    0.0000    0.0000    0.0000 H   0  0  0  0  0  0  0  0  0  0  0  0
    0.0000    0.0000    0.0000 H   0  0  0  0  0  0  0  0  0  0  0  0
    0.0000    0.0000    0.0000 H   0  0  0  0  0  0  0  0  0  0  0  0
    0.0000    0.0000    0.0000 H   0  0  0  0  0  0  0  0  0  0  0  0
    0.0000    0.0000    0.0000 H   0  0  0  0  0  0  0  0  0  0  0  0
    0.0000    0.0000    0.0000 H   0  0  0  0  0  0  0  0  0  0  0  0
  1 35  1  0
  2 36  1  0
  3 37  1  0
  4 38  1  0
  5 43  1  0
  6 44  1  0
  7 28  1  0
  8 33  2  0
  9 34  2  0
 10 47  2  0
 11 48  2  0
 12 49  2  0
 13 50  2  0
 14 55  1  0
 15 56  1  0
 16 57  1  0
 17 58  1  0
 18 59  1  0
 19 60  1  0
 20 61  1  0
 21 62  1  0
 22 29  1  0
 22 31  1  0
 22 33  1  0
 23 30  1  0
 23 32  1  0
 23 34  1  0
 24 47  1  0
 24 51  1  0
 25 48  1  0
 25 52  1  0
 26 49  1  0
 26 53  1  0
 27 50  1  0
 27 54  1  0
 28 29  1  0
 28 30  1  0
 31 35  2  0
 31 37  1  0
 32 36  2  0
 32 38  1  0
 33 45  1  0
 34 46  1  0
 35 39  1  0
 36 40  1  0
 37 41  2  0
 38 42  2  0
 39 43  2  0
 39 49  1  0
 40 44  2  0
 40 50  1  0
 41 43  1  0
 41 47  1  0
 42 44  1  0
 42 48  1  0
 51 55  1  0
 52 56  1  0
 53 57  1  0
 54 58  1  0
 55 59  1  0
 56 60  1  0
 57 61  1  0
 58 62  1  0
  7 63  1  0
 14 64  1  0
 15 65  1  0
 16 66  1  0
 17 67  1  0
 18 68  1  0
 19 69  1  0
 20 70  1  0
 21 71  1  0
 24 72  1  0
 25 73  1  0
 26 74  1  0
 27 75  1  0
 28 76  1  0
 29 77  1  0
 29 78  1  0
 30 79  1  0
 30 80  1  0
 45 81  1  0
 45 82  1  0
 45 83  1  0
 46 84  1  0
 46 85  1  0
 46 86  1  0
 51 87  1  0
 51 88  1  0
 52 89  1  0
 52 90  1  0
 53 91  1  0
 53 92  1  0
 54 93  1  0
 54 94  1  0
 55 95  1  0
 56 96  1  0
 57 97  1  0
 58 98  1  0
 59 99  1  0
 59100  1  0
 60101  1  0
 60102  1  0
 61103  1  0
 61104  1  0
 62105  1  0
 62106  1  0
M  END
>  <ALOGPS_LOGP>  (1) 
-2.91

>  <ALOGPS_LOGS>  (1) 
-3.92

>  <ALOGPS_SOLUBILITY>  (1) 
1.85e-01 g/l

>  <DATABASE_ID>  (1) 
DB01249

>  <DATABASE_NAME>  (1) 
drugbank

>  <DRUGBANK_ID>  (1) 
DB01249

>  <DRUG_GROUPS>  (1) 
approved

>  <EXACT_MASS>  (1) 
1549.713275288

>  <FORMULA>  (1) 
C35H44I6N6O15

>  <GENERIC_NAME>  (1) 
Iodixanol

>  <INCHI_IDENTIFIER>  (1) 
InChI=1S/C35H44I6N6O15/c1-13(52)46(30-26(38)20(32(59)42-3-15(54)9-48)24(36)21(27(30)39)33(60)43-4-16(55)10-49)7-19(58)8-47(14(2)53)31-28(40)22(34(61)44-5-17(56)11-50)25(37)23(29(31)41)35(62)45-6-18(57)12-51/h15-19,48-51,54-58H,3-12H2,1-2H3,(H,42,59)(H,43,60)(H,44,61)(H,45,62)

>  <INCHI_KEY>  (1) 
NBQNWMBBSKPBAY-UHFFFAOYSA-N

>  <JCHEM_ACCEPTOR_COUNT>  (1) 
15

>  <JCHEM_AVERAGE_POLARIZABILITY>  (1) 
111.45001253222995

>  <JCHEM_BIOAVAILABILITY>  (1) 
0

>  <JCHEM_DONOR_COUNT>  (1) 
13

>  <JCHEM_FORMAL_CHARGE>  (1) 
0

>  <JCHEM_GHOSE_FILTER>  (1) 
0

>  <JCHEM_IUPAC>  (1) 
5-{N-[3-(N-{3,5-bis[(2,3-dihydroxypropyl)carbamoyl]-2,4,6-triiodophenyl}acetamido)-2-hydroxypropyl]acetamido}-N1,N3-bis(2,3-dihydroxypropyl)-2,4,6-triiodobenzene-1,3-dicarboxamide

>  <JCHEM_LOGP>  (1) 
-2.0626308873333334

>  <JCHEM_MDDR_LIKE_RULE>  (1) 
0

>  <JCHEM_NUMBER_OF_RINGS>  (1) 
2

>  <JCHEM_PHYSIOLOGICAL_CHARGE>  (1) 
0

>  <JCHEM_PKA>  (1) 
11.944537855828374

>  <JCHEM_PKA_STRONGEST_ACIDIC>  (1) 
11.43394900991981

>  <JCHEM_PKA_STRONGEST_BASIC>  (1) 
-3.1934730731083985

>  <JCHEM_POLAR_SURFACE_AREA>  (1) 
339.08999999999986

>  <JCHEM_REFRACTIVITY>  (1) 
277.1618999999999

>  <JCHEM_ROTATABLE_BOND_COUNT>  (1) 
22

>  <JCHEM_RULE_OF_FIVE>  (1) 
0

>  <JCHEM_TRADITIONAL_IUPAC>  (1) 
iodixanol

>  <JCHEM_VEBER_RULE>  (1) 
0

>  <MOLECULAR_WEIGHT>  (1) 
1550.1819

>  <PRODUCTS>  (1) 
Visipaque

>  <SMILES>  (1) 
CC(=O)N(CC(O)CN(C(C)=O)C1=C(I)C(C(=O)NCC(O)CO)=C(I)C(C(=O)NCC(O)CO)=C1I)C1=C(I)C(C(=O)NCC(O)CO)=C(I)C(C(=O)NCC(O)CO)=C1I

$$$$
