
     RDKit          2D

418426  0  0  0  0  0  0  0  0999 V2000
    1.0751   -6.5663    0.0000 C   0  0  0  0  0  0  0  0  0  0  0  0
    1.7893   -6.9793    0.0000 C   0  0  0  0  0  0  0  0  0  0  0  0
    1.0755   -5.7413    0.0000 O   0  0  0  0  0  0  0  0  0  0  0  0
    2.5041   -6.5671    0.0000 N   0  0  0  0  0  0  0  0  0  0  0  0
    1.7889   -7.8042    0.0000 C   0  0  0  0  0  0  0  0  0  0  0  0
    2.5032   -8.2172    0.0000 O   0  0  0  0  0  0  0  0  0  0  0  0
    0.3603   -6.9784    0.0000 N   0  0  0  0  0  0  0  0  0  0  0  0
   -1.0684   -6.9776    0.0000 C   0  0  0  0  0  0  0  0  0  0  0  0
   -1.0689   -7.8025    0.0000 O   0  0  0  0  0  0  0  0  0  0  0  0
   -0.3537   -6.5654    0.0000 C   0  0  0  0  0  0  0  0  0  0  0  0
   -0.3533   -5.7406    0.0000 C   0  0  0  0  0  0  0  0  0  0  0  0
   -1.0676   -5.3276    0.0000 C   0  0  0  0  0  0  0  0  0  0  0  0
   -1.0672   -4.5026    0.0000 C   0  0  0  0  0  0  0  0  0  0  0  0
   -1.7822   -5.7397    0.0000 C   0  0  0  0  0  0  0  0  0  0  0  0
   -2.4966   -5.3267    0.0000 C   0  0  0  0  0  0  0  0  0  0  0  0
   -2.4961   -4.5018    0.0000 C   0  0  0  0  0  0  0  0  0  0  0  0
   -1.7814   -4.0897    0.0000 C   0  0  0  0  0  0  0  0  0  0  0  0
   -3.2102   -4.0889    0.0000 O   0  0  0  0  0  0  0  0  0  0  0  0
   -1.7826   -6.5646    0.0000 N   0  0  0  0  0  0  0  0  0  0  0  0
   -3.2115   -6.5638    0.0000 C   0  0  0  0  0  0  0  0  0  0  0  0
   -2.4974   -6.9767    0.0000 C   0  0  0  0  0  0  0  0  0  0  0  0
   -3.2111   -5.7388    0.0000 O   0  0  0  0  0  0  0  0  0  0  0  0
   -2.4978   -7.8016    0.0000 C   0  0  0  0  0  0  0  0  0  0  0  0
   -1.7835   -8.2146    0.0000 O   0  0  0  0  0  0  0  0  0  0  0  0
   -3.9262   -6.9759    0.0000 N   0  0  0  0  0  0  0  0  0  0  0  0
   -5.3552   -6.9751    0.0000 C   0  0  0  0  0  0  0  0  0  0  0  0
   -5.3557   -7.8000    0.0000 O   0  0  0  0  0  0  0  0  0  0  0  0
   -4.6404   -6.5630    0.0000 C   0  0  0  0  0  0  0  0  0  0  0  0
   -5.3539   -4.5000    0.0000 S   0  0  0  0  0  0  0  0  0  0  0  0
   -4.6400   -5.7380    0.0000 C   0  0  0  0  0  0  0  0  0  0  0  0
   -5.3543   -5.3251    0.0000 C   0  0  0  0  0  0  0  0  0  0  0  0
   -6.0681   -4.0872    0.0000 C   0  0  0  0  0  0  0  0  0  0  0  0
   -6.0694   -6.5621    0.0000 N   0  0  0  0  0  0  0  0  0  0  0  0
   -7.4984   -6.5614    0.0000 C   0  0  0  0  0  0  0  0  0  0  0  0
   -6.0706   -9.0372    0.0000 C   0  0  0  0  0  0  0  0  0  0  0  0
   -7.4980   -5.7364    0.0000 O   0  0  0  0  0  0  0  0  0  0  0  0
   -6.7841   -6.9743    0.0000 C   0  0  0  0  0  0  0  0  0  0  0  0
   -5.3564   -9.4500    0.0000 O   0  0  0  0  0  0  0  0  0  0  0  0
   -6.7846   -7.7993    0.0000 C   0  0  0  0  0  0  0  0  0  0  0  0
   -6.0702   -8.2121    0.0000 C   0  0  0  0  0  0  0  0  0  0  0  0
   -6.7853   -9.4494    0.0000 O   0  0  0  0  0  0  0  0  0  0  0  0
   -8.2131   -6.9736    0.0000 N   0  0  0  0  0  0  0  0  0  0  0  0
   -8.9272   -5.7359    0.0000 C   0  0  0  0  0  0  0  0  0  0  0  0
   -8.2127   -5.3236    0.0000 O   0  0  0  0  0  0  0  0  0  0  0  0
   -8.9275   -6.5608    0.0000 C   0  0  0  0  0  0  0  0  0  0  0  0
   -9.6420   -6.9733    0.0000 C   0  0  0  0  0  0  0  0  0  0  0  0
  -10.3567   -6.5609    0.0000 C   0  0  0  0  0  0  0  0  0  0  0  0
  -11.1413   -6.8155    0.0000 N   0  0  0  0  0  0  0  0  0  0  0  0
  -11.6260   -6.1477    0.0000 C   0  0  0  0  0  0  0  0  0  0  0  0
  -11.1406   -5.4805    0.0000 N   0  0  0  0  0  0  0  0  0  0  0  0
  -10.3561   -5.7359    0.0000 C   0  0  0  0  0  0  0  0  0  0  0  0
   -9.6416   -5.3232    0.0000 N   0  0  0  0  0  0  0  0  0  0  0  0
  -10.3560   -4.0856    0.0000 C   0  0  0  0  0  0  0  0  0  0  0  0
   -9.6415   -4.4981    0.0000 C   0  0  0  0  0  0  0  0  0  0  0  0
  -11.0705   -4.4980    0.0000 O   0  0  0  0  0  0  0  0  0  0  0  0
   -8.9270   -4.0857    0.0000 C   0  0  0  0  0  0  0  0  0  0  0  0
   -8.9269   -3.2607    0.0000 C   0  0  0  0  0  0  0  0  0  0  0  0
   -8.2123   -2.8482    0.0000 C   0  0  0  0  0  0  0  0  0  0  0  0
   -9.6413   -2.8482    0.0000 C   0  0  0  0  0  0  0  0  0  0  0  0
   -9.6412   -2.0230    0.0000 C   0  0  0  0  0  0  0  0  0  0  0  0
   -8.2122   -2.0232    0.0000 C   0  0  0  0  0  0  0  0  0  0  0  0
   -8.9267   -1.6106    0.0000 C   0  0  0  0  0  0  0  0  0  0  0  0
  -10.3560   -3.2605    0.0000 N   0  0  0  0  0  0  0  0  0  0  0  0
  -14.6429   -3.2603    0.0000 C   0  0  0  0  0  0  0  0  0  0  0  0
  -11.0704   -2.0229    0.0000 C   0  0  0  0  0  0  0  0  0  0  0  0
  -15.3574   -2.8478    0.0000 N   0  0  0  0  0  0  0  0  0  0  0  0
  -10.3559   -1.6104    0.0000 O   0  0  0  0  0  0  0  0  0  0  0  0
  -13.9284   -2.8478    0.0000 N   0  0  0  0  0  0  0  0  0  0  0  0
  -11.0704   -2.8480    0.0000 C   0  0  0  0  0  0  0  0  0  0  0  0
  -14.6430   -4.0854    0.0000 N   0  0  0  0  0  0  0  0  0  0  0  0
  -13.2139   -3.2604    0.0000 C   0  0  0  0  0  0  0  0  0  0  0  0
  -11.7849   -3.2604    0.0000 C   0  0  0  0  0  0  0  0  0  0  0  0
  -12.4994   -2.8479    0.0000 C   0  0  0  0  0  0  0  0  0  0  0  0
  -11.7849   -1.6104    0.0000 N   0  0  0  0  0  0  0  0  0  0  0  0
  -11.0705   -0.3730    0.0000 C   0  0  0  0  0  0  0  0  0  0  0  0
  -10.3560   -0.7856    0.0000 O   0  0  0  0  0  0  0  0  0  0  0  0
  -11.7849   -0.7856    0.0000 C   0  0  0  0  0  0  0  0  0  0  0  0
  -12.4993   -0.3730    0.0000 C   0  0  0  0  0  0  0  0  0  0  0  0
  -12.4993    0.4518    0.0000 C   0  0  0  0  0  0  0  0  0  0  0  0
  -11.8319    0.9368    0.0000 C   0  0  0  0  0  0  0  0  0  0  0  0
  -12.0868    1.7213    0.0000 N   0  0  0  0  0  0  0  0  0  0  0  0
  -12.9119    1.7213    0.0000 C   0  0  0  0  0  0  0  0  0  0  0  0
  -13.1668    0.9368    0.0000 C   0  0  0  0  0  0  0  0  0  0  0  0
  -13.9736    0.7653    0.0000 C   0  0  0  0  0  0  0  0  0  0  0  0
  -13.4638    2.3345    0.0000 C   0  0  0  0  0  0  0  0  0  0  0  0
  -14.2708    2.1628    0.0000 C   0  0  0  0  0  0  0  0  0  0  0  0
  -14.5257    1.3783    0.0000 C   0  0  0  0  0  0  0  0  0  0  0  0
  -11.0704    0.4519    0.0000 N   0  0  0  0  0  0  0  0  0  0  0  0
  -10.3559    1.6894    0.0000 C   0  0  0  0  0  0  0  0  0  0  0  0
  -11.0703    2.1018    0.0000 O   0  0  0  0  0  0  0  0  0  0  0  0
  -10.3559    0.8645    0.0000 C   0  0  0  0  0  0  0  0  0  0  0  0
   -9.6414    2.1018    0.0000 N   0  0  0  0  0  0  0  0  0  0  0  0
   -8.9271    3.3395    0.0000 C   0  0  0  0  0  0  0  0  0  0  0  0
   -8.2125    2.9270    0.0000 N   0  0  0  0  0  0  0  0  0  0  0  0
   -9.6415    2.9269    0.0000 C   0  0  0  0  0  0  0  0  0  0  0  0
  -13.2141    3.3390    0.0000 N   0  0  0  0  0  0  0  0  0  0  0  0
  -12.4995    2.9266    0.0000 C   0  0  0  0  0  0  0  0  0  0  0  0
  -10.3561    3.3393    0.0000 C   0  0  0  0  0  0  0  0  0  0  0  0
  -11.7851    3.3392    0.0000 C   0  0  0  0  0  0  0  0  0  0  0  0
  -11.0705    2.9268    0.0000 C   0  0  0  0  0  0  0  0  0  0  0  0
   -8.9271    4.1645    0.0000 O   0  0  0  0  0  0  0  0  0  0  0  0
   -7.4588    3.2624    0.0000 C   0  0  0  0  0  0  0  0  0  0  0  0
   -8.1261    2.1064    0.0000 C   0  0  0  0  0  0  0  0  0  0  0  0
   -7.3193    1.9350    0.0000 C   0  0  0  0  0  0  0  0  0  0  0  0
   -6.9068    2.6495    0.0000 C   0  0  0  0  0  0  0  0  0  0  0  0
   -7.4588    4.0875    0.0000 C   0  0  0  0  0  0  0  0  0  0  0  0
   -8.1733    4.5000    0.0000 O   0  0  0  0  0  0  0  0  0  0  0  0
   -6.7444    4.5000    0.0000 N   0  0  0  0  0  0  0  0  0  0  0  0
   -6.0299    5.7375    0.0000 C   0  0  0  0  0  0  0  0  0  0  0  0
   -6.7444    5.3251    0.0000 C   0  0  0  0  0  0  0  0  0  0  0  0
   -5.3155    5.3251    0.0000 O   0  0  0  0  0  0  0  0  0  0  0  0
   -7.4588    5.7375    0.0000 C   0  0  0  0  0  0  0  0  0  0  0  0
   -7.4588    6.5625    0.0000 C   0  0  0  0  0  0  0  0  0  0  0  0
   -8.1734    5.3250    0.0000 C   0  0  0  0  0  0  0  0  0  0  0  0
   -6.0299    6.5626    0.0000 N   0  0  0  0  0  0  0  0  0  0  0  0
   -4.6010    6.5624    0.0000 C   0  0  0  0  0  0  0  0  0  0  0  0
   -3.8865    6.9749    0.0000 O   0  0  0  0  0  0  0  0  0  0  0  0
   -5.3154    6.9751    0.0000 C   0  0  0  0  0  0  0  0  0  0  0  0
   -4.6011    5.7375    0.0000 N   0  0  0  0  0  0  0  0  0  0  0  0
   -3.1720    5.7374    0.0000 C   0  0  0  0  0  0  0  0  0  0  0  0
   -3.1720    6.5624    0.0000 O   0  0  0  0  0  0  0  0  0  0  0  0
   -3.8867    5.3249    0.0000 C   0  0  0  0  0  0  0  0  0  0  0  0
   -5.3160    2.0249    0.0000 N   0  0  0  0  0  0  0  0  0  0  0  0
   -5.3159    2.8500    0.0000 C   0  0  0  0  0  0  0  0  0  0  0  0
   -3.8867    4.4999    0.0000 C   0  0  0  0  0  0  0  0  0  0  0  0
   -4.6013    3.2624    0.0000 C   0  0  0  0  0  0  0  0  0  0  0  0
   -4.6012    4.0875    0.0000 C   0  0  0  0  0  0  0  0  0  0  0  0
   -2.4577    5.3249    0.0000 N   0  0  0  0  0  0  0  0  0  0  0  0
   -1.0286    5.3250    0.0000 C   0  0  0  0  0  0  0  0  0  0  0  0
   -1.0286    4.4999    0.0000 O   0  0  0  0  0  0  0  0  0  0  0  0
   -1.7431    5.7374    0.0000 C   0  0  0  0  0  0  0  0  0  0  0  0
   -3.1725    9.0374    0.0000 N   0  0  0  0  0  0  0  0  0  0  0  0
   -3.1724    8.2123    0.0000 C   0  0  0  0  0  0  0  0  0  0  0  0
   -1.7432    6.5624    0.0000 C   0  0  0  0  0  0  0  0  0  0  0  0
   -2.4579    7.7999    0.0000 C   0  0  0  0  0  0  0  0  0  0  0  0
   -2.4578    6.9749    0.0000 C   0  0  0  0  0  0  0  0  0  0  0  0
   -0.3141    5.7375    0.0000 N   0  0  0  0  0  0  0  0  0  0  0  0
   -1.0288    2.0248    0.0000 C   0  0  0  0  0  0  0  0  0  0  0  0
    1.1148    5.7374    0.0000 C   0  0  0  0  0  0  0  0  0  0  0  0
   -1.7431    1.6123    0.0000 N   0  0  0  0  0  0  0  0  0  0  0  0
    1.1148    6.5624    0.0000 O   0  0  0  0  0  0  0  0  0  0  0  0
   -1.0287    2.8499    0.0000 N   0  0  0  0  0  0  0  0  0  0  0  0
    0.4002    5.3250    0.0000 C   0  0  0  0  0  0  0  0  0  0  0  0
   -0.3142    1.6123    0.0000 N   0  0  0  0  0  0  0  0  0  0  0  0
   -0.3142    3.2624    0.0000 C   0  0  0  0  0  0  0  0  0  0  0  0
    0.4002    4.5000    0.0000 C   0  0  0  0  0  0  0  0  0  0  0  0
   -0.3141    4.0874    0.0000 C   0  0  0  0  0  0  0  0  0  0  0  0
    1.8292    5.3249    0.0000 N   0  0  0  0  0  0  0  0  0  0  0  0
    1.1146    9.0376    0.0000 C   0  0  0  0  0  0  0  0  0  0  0  0
    3.2582    5.3250    0.0000 C   0  0  0  0  0  0  0  0  0  0  0  0
    0.4001    9.4500    0.0000 N   0  0  0  0  0  0  0  0  0  0  0  0
    3.2582    4.5000    0.0000 N   0  0  0  0  0  0  0  0  0  0  0  0
    1.1147    8.2124    0.0000 N   0  0  0  0  0  0  0  0  0  0  0  0
    2.5438    5.7374    0.0000 C   0  0  0  0  0  0  0  0  0  0  0  0
    1.8291    9.4500    0.0000 N   0  0  0  0  0  0  0  0  0  0  0  0
    1.8291    7.8000    0.0000 C   0  0  0  0  0  0  0  0  0  0  0  0
    2.5438    6.5624    0.0000 C   0  0  0  0  0  0  0  0  0  0  0  0
    1.8291    6.9750    0.0000 C   0  0  0  0  0  0  0  0  0  0  0  0
    3.9727    5.7375    0.0000 O   0  0  0  0  0  0  0  0  0  0  0  0
    3.9256    4.0150    0.0000 C   0  0  0  0  0  0  0  0  0  0  0  0
    2.5908    4.0150    0.0000 C   0  0  0  0  0  0  0  0  0  0  0  0
    2.8457    3.2304    0.0000 C   0  0  0  0  0  0  0  0  0  0  0  0
    3.6707    3.2304    0.0000 C   0  0  0  0  0  0  0  0  0  0  0  0
    4.6400    4.4274    0.0000 C   0  0  0  0  0  0  0  0  0  0  0  0
    4.6400    5.2524    0.0000 O   0  0  0  0  0  0  0  0  0  0  0  0
    5.3545    4.0150    0.0000 N   0  0  0  0  0  0  0  0  0  0  0  0
    6.7836    4.0150    0.0000 C   0  0  0  0  0  0  0  0  0  0  0  0
    6.0690    4.4275    0.0000 C   0  0  0  0  0  0  0  0  0  0  0  0
    6.7836    3.1900    0.0000 O   0  0  0  0  0  0  0  0  0  0  0  0
    6.0690    5.2525    0.0000 C   0  0  0  0  0  0  0  0  0  0  0  0
    6.7836    5.6650    0.0000 C   0  0  0  0  0  0  0  0  0  0  0  0
    5.3546    5.6650    0.0000 C   0  0  0  0  0  0  0  0  0  0  0  0
    7.4980    4.4275    0.0000 N   0  0  0  0  0  0  0  0  0  0  0  0
    8.9269    4.4274    0.0000 C   0  0  0  0  0  0  0  0  0  0  0  0
    8.9270    5.2525    0.0000 O   0  0  0  0  0  0  0  0  0  0  0  0
    8.2124    4.0149    0.0000 C   0  0  0  0  0  0  0  0  0  0  0  0
    6.7831    0.7150    0.0000 N   0  0  0  0  0  0  0  0  0  0  0  0
    6.7833    1.5400    0.0000 C   0  0  0  0  0  0  0  0  0  0  0  0
    8.2123    3.1899    0.0000 C   0  0  0  0  0  0  0  0  0  0  0  0
    7.4977    1.9523    0.0000 C   0  0  0  0  0  0  0  0  0  0  0  0
    7.4979    2.7775    0.0000 C   0  0  0  0  0  0  0  0  0  0  0  0
    9.6414    4.0149    0.0000 N   0  0  0  0  0  0  0  0  0  0  0  0
   11.0704    4.0149    0.0000 C   0  0  0  0  0  0  0  0  0  0  0  0
   10.3559    4.4274    0.0000 C   0  0  0  0  0  0  0  0  0  0  0  0
   11.0704    3.1899    0.0000 O   0  0  0  0  0  0  0  0  0  0  0  0
   10.3559    5.2524    0.0000 C   0  0  0  0  0  0  0  0  0  0  0  0
    9.6414    5.6649    0.0000 C   0  0  0  0  0  0  0  0  0  0  0  0
   11.0704    5.6650    0.0000 C   0  0  0  0  0  0  0  0  0  0  0  0
   11.7849    4.4274    0.0000 N   0  0  0  0  0  0  0  0  0  0  0  0
   13.2139    4.4274    0.0000 C   0  0  0  0  0  0  0  0  0  0  0  0
   13.2139    5.2524    0.0000 N   0  0  0  0  0  0  0  0  0  0  0  0
   12.4994    4.0149    0.0000 C   0  0  0  0  0  0  0  0  0  0  0  0
   12.4994    3.1899    0.0000 C   0  0  0  0  0  0  0  0  0  0  0  0
   13.2139    2.7773    0.0000 C   0  0  0  0  0  0  0  0  0  0  0  0
   13.2139    1.9523    0.0000 C   0  0  0  0  0  0  0  0  0  0  0  0
   13.9284    3.1898    0.0000 C   0  0  0  0  0  0  0  0  0  0  0  0
   14.6429    2.7774    0.0000 C   0  0  0  0  0  0  0  0  0  0  0  0
   14.6429    1.9523    0.0000 C   0  0  0  0  0  0  0  0  0  0  0  0
   13.9284    1.5399    0.0000 C   0  0  0  0  0  0  0  0  0  0  0  0
   15.3574    1.5399    0.0000 O   0  0  0  0  0  0  0  0  0  0  0  0
   13.9283    4.0149    0.0000 O   0  0  0  0  0  0  0  0  0  0  0  0
   13.8813    5.7374    0.0000 C   0  0  0  0  0  0  0  0  0  0  0  0
   12.5464    5.7374    0.0000 C   0  0  0  0  0  0  0  0  0  0  0  0
   12.8015    6.5219    0.0000 C   0  0  0  0  0  0  0  0  0  0  0  0
   13.6264    6.5219    0.0000 C   0  0  0  0  0  0  0  0  0  0  0  0
   14.5958    5.3249    0.0000 C   0  0  0  0  0  0  0  0  0  0  0  0
   14.5957    4.4998    0.0000 O   0  0  0  0  0  0  0  0  0  0  0  0
   15.3102    5.7374    0.0000 O   0  0  0  0  0  0  0  0  0  0  0  0
    0.0000    0.0000    0.0000 H   0  0  0  0  0  0  0  0  0  0  0  0
    0.0000    0.0000    0.0000 H   0  0  0  0  0  0  0  0  0  0  0  0
    0.0000    0.0000    0.0000 H   0  0  0  0  0  0  0  0  0  0  0  0
    0.0000    0.0000    0.0000 H   0  0  0  0  0  0  0  0  0  0  0  0
    0.0000    0.0000    0.0000 H   0  0  0  0  0  0  0  0  0  0  0  0
    0.0000    0.0000    0.0000 H   0  0  0  0  0  0  0  0  0  0  0  0
    0.0000    0.0000    0.0000 H   0  0  0  0  0  0  0  0  0  0  0  0
    0.0000    0.0000    0.0000 H   0  0  0  0  0  0  0  0  0  0  0  0
    0.0000    0.0000    0.0000 H   0  0  0  0  0  0  0  0  0  0  0  0
    0.0000    0.0000    0.0000 H   0  0  0  0  0  0  0  0  0  0  0  0
    0.0000    0.0000    0.0000 H   0  0  0  0  0  0  0  0  0  0  0  0
    0.0000    0.0000    0.0000 H   0  0  0  0  0  0  0  0  0  0  0  0
    0.0000    0.0000    0.0000 H   0  0  0  0  0  0  0  0  0  0  0  0
    0.0000    0.0000    0.0000 H   0  0  0  0  0  0  0  0  0  0  0  0
    0.0000    0.0000    0.0000 H   0  0  0  0  0  0  0  0  0  0  0  0
    0.0000    0.0000    0.0000 H   0  0  0  0  0  0  0  0  0  0  0  0
    0.0000    0.0000    0.0000 H   0  0  0  0  0  0  0  0  0  0  0  0
    0.0000    0.0000    0.0000 H   0  0  0  0  0  0  0  0  0  0  0  0
    0.0000    0.0000    0.0000 H   0  0  0  0  0  0  0  0  0  0  0  0
    0.0000    0.0000    0.0000 H   0  0  0  0  0  0  0  0  0  0  0  0
    0.0000    0.0000    0.0000 H   0  0  0  0  0  0  0  0  0  0  0  0
    0.0000    0.0000    0.0000 H   0  0  0  0  0  0  0  0  0  0  0  0
    0.0000    0.0000    0.0000 H   0  0  0  0  0  0  0  0  0  0  0  0
    0.0000    0.0000    0.0000 H   0  0  0  0  0  0  0  0  0  0  0  0
    0.0000    0.0000    0.0000 H   0  0  0  0  0  0  0  0  0  0  0  0
    0.0000    0.0000    0.0000 H   0  0  0  0  0  0  0  0  0  0  0  0
    0.0000    0.0000    0.0000 H   0  0  0  0  0  0  0  0  0  0  0  0
    0.0000    0.0000    0.0000 H   0  0  0  0  0  0  0  0  0  0  0  0
    0.0000    0.0000    0.0000 H   0  0  0  0  0  0  0  0  0  0  0  0
    0.0000    0.0000    0.0000 H   0  0  0  0  0  0  0  0  0  0  0  0
    0.0000    0.0000    0.0000 H   0  0  0  0  0  0  0  0  0  0  0  0
    0.0000    0.0000    0.0000 H   0  0  0  0  0  0  0  0  0  0  0  0
    0.0000    0.0000    0.0000 H   0  0  0  0  0  0  0  0  0  0  0  0
    0.0000    0.0000    0.0000 H   0  0  0  0  0  0  0  0  0  0  0  0
    0.0000    0.0000    0.0000 H   0  0  0  0  0  0  0  0  0  0  0  0
    0.0000    0.0000    0.0000 H   0  0  0  0  0  0  0  0  0  0  0  0
    0.0000    0.0000    0.0000 H   0  0  0  0  0  0  0  0  0  0  0  0
    0.0000    0.0000    0.0000 H   0  0  0  0  0  0  0  0  0  0  0  0
    0.0000    0.0000    0.0000 H   0  0  0  0  0  0  0  0  0  0  0  0
    0.0000    0.0000    0.0000 H   0  0  0  0  0  0  0  0  0  0  0  0
    0.0000    0.0000    0.0000 H   0  0  0  0  0  0  0  0  0  0  0  0
    0.0000    0.0000    0.0000 H   0  0  0  0  0  0  0  0  0  0  0  0
    0.0000    0.0000    0.0000 H   0  0  0  0  0  0  0  0  0  0  0  0
    0.0000    0.0000    0.0000 H   0  0  0  0  0  0  0  0  0  0  0  0
    0.0000    0.0000    0.0000 H   0  0  0  0  0  0  0  0  0  0  0  0
    0.0000    0.0000    0.0000 H   0  0  0  0  0  0  0  0  0  0  0  0
    0.0000    0.0000    0.0000 H   0  0  0  0  0  0  0  0  0  0  0  0
    0.0000    0.0000    0.0000 H   0  0  0  0  0  0  0  0  0  0  0  0
    0.0000    0.0000    0.0000 H   0  0  0  0  0  0  0  0  0  0  0  0
    0.0000    0.0000    0.0000 H   0  0  0  0  0  0  0  0  0  0  0  0
    0.0000    0.0000    0.0000 H   0  0  0  0  0  0  0  0  0  0  0  0
    0.0000    0.0000    0.0000 H   0  0  0  0  0  0  0  0  0  0  0  0
    0.0000    0.0000    0.0000 H   0  0  0  0  0  0  0  0  0  0  0  0
    0.0000    0.0000    0.0000 H   0  0  0  0  0  0  0  0  0  0  0  0
    0.0000    0.0000    0.0000 H   0  0  0  0  0  0  0  0  0  0  0  0
    0.0000    0.0000    0.0000 H   0  0  0  0  0  0  0  0  0  0  0  0
    0.0000    0.0000    0.0000 H   0  0  0  0  0  0  0  0  0  0  0  0
    0.0000    0.0000    0.0000 H   0  0  0  0  0  0  0  0  0  0  0  0
    0.0000    0.0000    0.0000 H   0  0  0  0  0  0  0  0  0  0  0  0
    0.0000    0.0000    0.0000 H   0  0  0  0  0  0  0  0  0  0  0  0
    0.0000    0.0000    0.0000 H   0  0  0  0  0  0  0  0  0  0  0  0
    0.0000    0.0000    0.0000 H   0  0  0  0  0  0  0  0  0  0  0  0
    0.0000    0.0000    0.0000 H   0  0  0  0  0  0  0  0  0  0  0  0
    0.0000    0.0000    0.0000 H   0  0  0  0  0  0  0  0  0  0  0  0
    0.0000    0.0000    0.0000 H   0  0  0  0  0  0  0  0  0  0  0  0
    0.0000    0.0000    0.0000 H   0  0  0  0  0  0  0  0  0  0  0  0
    0.0000    0.0000    0.0000 H   0  0  0  0  0  0  0  0  0  0  0  0
    0.0000    0.0000    0.0000 H   0  0  0  0  0  0  0  0  0  0  0  0
    0.0000    0.0000    0.0000 H   0  0  0  0  0  0  0  0  0  0  0  0
    0.0000    0.0000    0.0000 H   0  0  0  0  0  0  0  0  0  0  0  0
    0.0000    0.0000    0.0000 H   0  0  0  0  0  0  0  0  0  0  0  0
    0.0000    0.0000    0.0000 H   0  0  0  0  0  0  0  0  0  0  0  0
    0.0000    0.0000    0.0000 H   0  0  0  0  0  0  0  0  0  0  0  0
    0.0000    0.0000    0.0000 H   0  0  0  0  0  0  0  0  0  0  0  0
    0.0000    0.0000    0.0000 H   0  0  0  0  0  0  0  0  0  0  0  0
    0.0000    0.0000    0.0000 H   0  0  0  0  0  0  0  0  0  0  0  0
    0.0000    0.0000    0.0000 H   0  0  0  0  0  0  0  0  0  0  0  0
    0.0000    0.0000    0.0000 H   0  0  0  0  0  0  0  0  0  0  0  0
    0.0000    0.0000    0.0000 H   0  0  0  0  0  0  0  0  0  0  0  0
    0.0000    0.0000    0.0000 H   0  0  0  0  0  0  0  0  0  0  0  0
    0.0000    0.0000    0.0000 H   0  0  0  0  0  0  0  0  0  0  0  0
    0.0000    0.0000    0.0000 H   0  0  0  0  0  0  0  0  0  0  0  0
    0.0000    0.0000    0.0000 H   0  0  0  0  0  0  0  0  0  0  0  0
    0.0000    0.0000    0.0000 H   0  0  0  0  0  0  0  0  0  0  0  0
    0.0000    0.0000    0.0000 H   0  0  0  0  0  0  0  0  0  0  0  0
    0.0000    0.0000    0.0000 H   0  0  0  0  0  0  0  0  0  0  0  0
    0.0000    0.0000    0.0000 H   0  0  0  0  0  0  0  0  0  0  0  0
    0.0000    0.0000    0.0000 H   0  0  0  0  0  0  0  0  0  0  0  0
    0.0000    0.0000    0.0000 H   0  0  0  0  0  0  0  0  0  0  0  0
    0.0000    0.0000    0.0000 H   0  0  0  0  0  0  0  0  0  0  0  0
    0.0000    0.0000    0.0000 H   0  0  0  0  0  0  0  0  0  0  0  0
    0.0000    0.0000    0.0000 H   0  0  0  0  0  0  0  0  0  0  0  0
    0.0000    0.0000    0.0000 H   0  0  0  0  0  0  0  0  0  0  0  0
    0.0000    0.0000    0.0000 H   0  0  0  0  0  0  0  0  0  0  0  0
    0.0000    0.0000    0.0000 H   0  0  0  0  0  0  0  0  0  0  0  0
    0.0000    0.0000    0.0000 H   0  0  0  0  0  0  0  0  0  0  0  0
    0.0000    0.0000    0.0000 H   0  0  0  0  0  0  0  0  0  0  0  0
    0.0000    0.0000    0.0000 H   0  0  0  0  0  0  0  0  0  0  0  0
    0.0000    0.0000    0.0000 H   0  0  0  0  0  0  0  0  0  0  0  0
    0.0000    0.0000    0.0000 H   0  0  0  0  0  0  0  0  0  0  0  0
    0.0000    0.0000    0.0000 H   0  0  0  0  0  0  0  0  0  0  0  0
    0.0000    0.0000    0.0000 H   0  0  0  0  0  0  0  0  0  0  0  0
    0.0000    0.0000    0.0000 H   0  0  0  0  0  0  0  0  0  0  0  0
    0.0000    0.0000    0.0000 H   0  0  0  0  0  0  0  0  0  0  0  0
    0.0000    0.0000    0.0000 H   0  0  0  0  0  0  0  0  0  0  0  0
    0.0000    0.0000    0.0000 H   0  0  0  0  0  0  0  0  0  0  0  0
    0.0000    0.0000    0.0000 H   0  0  0  0  0  0  0  0  0  0  0  0
    0.0000    0.0000    0.0000 H   0  0  0  0  0  0  0  0  0  0  0  0
    0.0000    0.0000    0.0000 H   0  0  0  0  0  0  0  0  0  0  0  0
    0.0000    0.0000    0.0000 H   0  0  0  0  0  0  0  0  0  0  0  0
    0.0000    0.0000    0.0000 H   0  0  0  0  0  0  0  0  0  0  0  0
    0.0000    0.0000    0.0000 H   0  0  0  0  0  0  0  0  0  0  0  0
    0.0000    0.0000    0.0000 H   0  0  0  0  0  0  0  0  0  0  0  0
    0.0000    0.0000    0.0000 H   0  0  0  0  0  0  0  0  0  0  0  0
    0.0000    0.0000    0.0000 H   0  0  0  0  0  0  0  0  0  0  0  0
    0.0000    0.0000    0.0000 H   0  0  0  0  0  0  0  0  0  0  0  0
    0.0000    0.0000    0.0000 H   0  0  0  0  0  0  0  0  0  0  0  0
    0.0000    0.0000    0.0000 H   0  0  0  0  0  0  0  0  0  0  0  0
    0.0000    0.0000    0.0000 H   0  0  0  0  0  0  0  0  0  0  0  0
    0.0000    0.0000    0.0000 H   0  0  0  0  0  0  0  0  0  0  0  0
    0.0000    0.0000    0.0000 H   0  0  0  0  0  0  0  0  0  0  0  0
    0.0000    0.0000    0.0000 H   0  0  0  0  0  0  0  0  0  0  0  0
    0.0000    0.0000    0.0000 H   0  0  0  0  0  0  0  0  0  0  0  0
    0.0000    0.0000    0.0000 H   0  0  0  0  0  0  0  0  0  0  0  0
    0.0000    0.0000    0.0000 H   0  0  0  0  0  0  0  0  0  0  0  0
    0.0000    0.0000    0.0000 H   0  0  0  0  0  0  0  0  0  0  0  0
    0.0000    0.0000    0.0000 H   0  0  0  0  0  0  0  0  0  0  0  0
    0.0000    0.0000    0.0000 H   0  0  0  0  0  0  0  0  0  0  0  0
    0.0000    0.0000    0.0000 H   0  0  0  0  0  0  0  0  0  0  0  0
    0.0000    0.0000    0.0000 H   0  0  0  0  0  0  0  0  0  0  0  0
    0.0000    0.0000    0.0000 H   0  0  0  0  0  0  0  0  0  0  0  0
    0.0000    0.0000    0.0000 H   0  0  0  0  0  0  0  0  0  0  0  0
    0.0000    0.0000    0.0000 H   0  0  0  0  0  0  0  0  0  0  0  0
    0.0000    0.0000    0.0000 H   0  0  0  0  0  0  0  0  0  0  0  0
    0.0000    0.0000    0.0000 H   0  0  0  0  0  0  0  0  0  0  0  0
    0.0000    0.0000    0.0000 H   0  0  0  0  0  0  0  0  0  0  0  0
    0.0000    0.0000    0.0000 H   0  0  0  0  0  0  0  0  0  0  0  0
    0.0000    0.0000    0.0000 H   0  0  0  0  0  0  0  0  0  0  0  0
    0.0000    0.0000    0.0000 H   0  0  0  0  0  0  0  0  0  0  0  0
    0.0000    0.0000    0.0000 H   0  0  0  0  0  0  0  0  0  0  0  0
    0.0000    0.0000    0.0000 H   0  0  0  0  0  0  0  0  0  0  0  0
    0.0000    0.0000    0.0000 H   0  0  0  0  0  0  0  0  0  0  0  0
    0.0000    0.0000    0.0000 H   0  0  0  0  0  0  0  0  0  0  0  0
    0.0000    0.0000    0.0000 H   0  0  0  0  0  0  0  0  0  0  0  0
    0.0000    0.0000    0.0000 H   0  0  0  0  0  0  0  0  0  0  0  0
    0.0000    0.0000    0.0000 H   0  0  0  0  0  0  0  0  0  0  0  0
    0.0000    0.0000    0.0000 H   0  0  0  0  0  0  0  0  0  0  0  0
    0.0000    0.0000    0.0000 H   0  0  0  0  0  0  0  0  0  0  0  0
    0.0000    0.0000    0.0000 H   0  0  0  0  0  0  0  0  0  0  0  0
    0.0000    0.0000    0.0000 H   0  0  0  0  0  0  0  0  0  0  0  0
    0.0000    0.0000    0.0000 H   0  0  0  0  0  0  0  0  0  0  0  0
    0.0000    0.0000    0.0000 H   0  0  0  0  0  0  0  0  0  0  0  0
    0.0000    0.0000    0.0000 H   0  0  0  0  0  0  0  0  0  0  0  0
    0.0000    0.0000    0.0000 H   0  0  0  0  0  0  0  0  0  0  0  0
    0.0000    0.0000    0.0000 H   0  0  0  0  0  0  0  0  0  0  0  0
    0.0000    0.0000    0.0000 H   0  0  0  0  0  0  0  0  0  0  0  0
    0.0000    0.0000    0.0000 H   0  0  0  0  0  0  0  0  0  0  0  0
    0.0000    0.0000    0.0000 H   0  0  0  0  0  0  0  0  0  0  0  0
    0.0000    0.0000    0.0000 H   0  0  0  0  0  0  0  0  0  0  0  0
    0.0000    0.0000    0.0000 H   0  0  0  0  0  0  0  0  0  0  0  0
    0.0000    0.0000    0.0000 H   0  0  0  0  0  0  0  0  0  0  0  0
    0.0000    0.0000    0.0000 H   0  0  0  0  0  0  0  0  0  0  0  0
    0.0000    0.0000    0.0000 H   0  0  0  0  0  0  0  0  0  0  0  0
    0.0000    0.0000    0.0000 H   0  0  0  0  0  0  0  0  0  0  0  0
    0.0000    0.0000    0.0000 H   0  0  0  0  0  0  0  0  0  0  0  0
    0.0000    0.0000    0.0000 H   0  0  0  0  0  0  0  0  0  0  0  0
    0.0000    0.0000    0.0000 H   0  0  0  0  0  0  0  0  0  0  0  0
    0.0000    0.0000    0.0000 H   0  0  0  0  0  0  0  0  0  0  0  0
    0.0000    0.0000    0.0000 H   0  0  0  0  0  0  0  0  0  0  0  0
    0.0000    0.0000    0.0000 H   0  0  0  0  0  0  0  0  0  0  0  0
    0.0000    0.0000    0.0000 H   0  0  0  0  0  0  0  0  0  0  0  0
    0.0000    0.0000    0.0000 H   0  0  0  0  0  0  0  0  0  0  0  0
    0.0000    0.0000    0.0000 H   0  0  0  0  0  0  0  0  0  0  0  0
    0.0000    0.0000    0.0000 H   0  0  0  0  0  0  0  0  0  0  0  0
    0.0000    0.0000    0.0000 H   0  0  0  0  0  0  0  0  0  0  0  0
    0.0000    0.0000    0.0000 H   0  0  0  0  0  0  0  0  0  0  0  0
    0.0000    0.0000    0.0000 H   0  0  0  0  0  0  0  0  0  0  0  0
    0.0000    0.0000    0.0000 H   0  0  0  0  0  0  0  0  0  0  0  0
    0.0000    0.0000    0.0000 H   0  0  0  0  0  0  0  0  0  0  0  0
    0.0000    0.0000    0.0000 H   0  0  0  0  0  0  0  0  0  0  0  0
    0.0000    0.0000    0.0000 H   0  0  0  0  0  0  0  0  0  0  0  0
    0.0000    0.0000    0.0000 H   0  0  0  0  0  0  0  0  0  0  0  0
    0.0000    0.0000    0.0000 H   0  0  0  0  0  0  0  0  0  0  0  0
    0.0000    0.0000    0.0000 H   0  0  0  0  0  0  0  0  0  0  0  0
    0.0000    0.0000    0.0000 H   0  0  0  0  0  0  0  0  0  0  0  0
    0.0000    0.0000    0.0000 H   0  0  0  0  0  0  0  0  0  0  0  0
    0.0000    0.0000    0.0000 H   0  0  0  0  0  0  0  0  0  0  0  0
    0.0000    0.0000    0.0000 H   0  0  0  0  0  0  0  0  0  0  0  0
    0.0000    0.0000    0.0000 H   0  0  0  0  0  0  0  0  0  0  0  0
    0.0000    0.0000    0.0000 H   0  0  0  0  0  0  0  0  0  0  0  0
    0.0000    0.0000    0.0000 H   0  0  0  0  0  0  0  0  0  0  0  0
    0.0000    0.0000    0.0000 H   0  0  0  0  0  0  0  0  0  0  0  0
    0.0000    0.0000    0.0000 H   0  0  0  0  0  0  0  0  0  0  0  0
    0.0000    0.0000    0.0000 H   0  0  0  0  0  0  0  0  0  0  0  0
    0.0000    0.0000    0.0000 H   0  0  0  0  0  0  0  0  0  0  0  0
    0.0000    0.0000    0.0000 H   0  0  0  0  0  0  0  0  0  0  0  0
    0.0000    0.0000    0.0000 H   0  0  0  0  0  0  0  0  0  0  0  0
    0.0000    0.0000    0.0000 H   0  0  0  0  0  0  0  0  0  0  0  0
    0.0000    0.0000    0.0000 H   0  0  0  0  0  0  0  0  0  0  0  0
    0.0000    0.0000    0.0000 H   0  0  0  0  0  0  0  0  0  0  0  0
    0.0000    0.0000    0.0000 H   0  0  0  0  0  0  0  0  0  0  0  0
    0.0000    0.0000    0.0000 H   0  0  0  0  0  0  0  0  0  0  0  0
    0.0000    0.0000    0.0000 H   0  0  0  0  0  0  0  0  0  0  0  0
    0.0000    0.0000    0.0000 H   0  0  0  0  0  0  0  0  0  0  0  0
    0.0000    0.0000    0.0000 H   0  0  0  0  0  0  0  0  0  0  0  0
    0.0000    0.0000    0.0000 H   0  0  0  0  0  0  0  0  0  0  0  0
    0.0000    0.0000    0.0000 H   0  0  0  0  0  0  0  0  0  0  0  0
    0.0000    0.0000    0.0000 H   0  0  0  0  0  0  0  0  0  0  0  0
    0.0000    0.0000    0.0000 H   0  0  0  0  0  0  0  0  0  0  0  0
    0.0000    0.0000    0.0000 H   0  0  0  0  0  0  0  0  0  0  0  0
  2  1  1  1
  3  1  2  0
  2  4  1  0
  5  2  1  0
  6  5  1  0
  1  7  1  0
  9  8  2  0
 10  8  1  1
 11 10  1  0
 10  7  1  0
 12 11  1  0
 13 12  2  0
 14 12  1  0
 17 13  1  0
 15 14  2  0
 16 15  1  0
 17 16  2  0
 18 16  1  0
  8 19  1  0
 21 20  1  1
 22 20  2  0
 21 19  1  0
 23 21  1  0
 24 23  1  0
 20 25  1  0
 27 26  2  0
 28 26  1  1
 28 25  1  0
 30 28  1  0
 31 29  1  0
 32 29  1  0
 31 30  1  0
 26 33  1  0
 36 34  2  0
 37 34  1  1
 40 35  1  0
 38 35  2  0
 41 35  1  0
 39 37  1  0
 37 33  1  0
 40 39  1  0
 34 42  1  0
 44 43  2  0
 45 43  1  1
 46 45  1  0
 45 42  1  0
 47 46  1  0
 48 47  1  0
 51 47  2  0
 49 48  1  0
 50 49  2  0
 51 50  1  0
 43 52  1  0
 54 53  1  1
 55 53  2  0
 56 54  1  0
 54 52  1  0
 57 56  1  0
 58 57  2  0
 59 57  1  0
 61 58  1  0
 60 59  2  0
 62 60  1  0
 62 61  2  0
 53 63  1  0
 66 64  2  3
 68 64  1  0
 70 64  1  0
 69 65  1  1
 67 65  2  0
 71 68  1  0
 72 69  1  0
 69 63  1  0
 73 71  1  0
 73 72  1  0
 65 74  1  0
 76 75  2  0
 77 75  1  1
 78 77  1  0
 77 74  1  0
 79 78  1  0
 80 79  2  0
 83 79  1  0
 81 80  1  0
 82 81  1  0
 83 82  2  0
 85 82  1  0
 84 83  1  0
 87 84  2  0
 86 85  2  0
 87 86  1  0
 75 88  1  0
 91 89  1  0
 90 89  2  0
 88 91  1  0
 89 92  1  0
 94 93  1  0
 95 93  1  1
 95 92  1  0
 98 95  1  0
 97 96  1  0
 99 97  1  0
100 98  1  0
100 99  1  0
 93101  2  0
 94102  1  0
105102  1  0
103 94  1  0
104103  1  0
105104  1  0
102106  1  6
106107  2  0
106108  1  0
110109  1  1
111109  2  0
110108  1  0
112110  1  0
113112  1  0
114112  1  0
109115  1  0
118116  1  0
117116  2  0
115118  1  0
116119  1  0
121120  2  0
122120  1  6
122119  1  0
125122  1  0
124123  1  0
126124  1  0
127125  1  0
127126  1  0
120128  1  0
130129  2  0
131129  1  1
131128  1  0
134131  1  0
133132  1  0
135133  1  0
136134  1  0
136135  1  0
129137  1  0
140138  2  3
142138  1  0
144138  1  0
143139  1  1
141139  2  0
145142  1  0
146143  1  0
143137  1  0
147145  1  0
147146  1  0
139148  1  0
151149  2  3
153149  1  0
155149  1  0
154150  1  1
152150  1  0
156153  1  0
157154  1  0
154148  1  0
158156  1  0
158157  1  0
150159  2  0
152160  1  0
163160  1  0
161152  1  0
162161  1  0
163162  1  0
160164  1  1
164165  2  0
164166  1  0
168167  1  1
169167  2  0
168166  1  0
170168  1  0
171170  1  0
172170  1  0
167173  1  0
175174  2  0
176174  1  1
176173  1  0
179176  1  0
178177  1  0
180178  1  0
181179  1  0
181180  1  0
174182  1  0
184183  1  6
185183  2  0
184182  1  0
186184  1  0
187186  1  0
188186  1  0
183189  1  0
191190  1  0
192190  1  1
193192  1  0
192189  1  0
194193  1  0
195194  2  0
196194  1  0
199195  1  0
197196  2  0
198197  1  0
199198  2  0
200198  1  0
190201  2  0
191202  1  0
205202  1  0
203191  1  0
204203  1  0
205204  1  0
202206  1  6
206207  2  0
206208  1  0
  2209  1  0
  4210  1  0
  4211  1  0
  5212  1  0
  5213  1  0
  6214  1  0
  7215  1  0
 10216  1  0
 11217  1  0
 11218  1  0
 13219  1  0
 14220  1  0
 15221  1  0
 17222  1  0
 18223  1  0
 19224  1  0
 21225  1  0
 23226  1  0
 23227  1  0
 24228  1  0
 25229  1  0
 28230  1  0
 30231  1  0
 30232  1  0
 31233  1  0
 31234  1  0
 32235  1  0
 32236  1  0
 32237  1  0
 33238  1  0
 37239  1  0
 39240  1  0
 39241  1  0
 40242  1  0
 40243  1  0
 41244  1  0
 42245  1  0
 45246  1  0
 46247  1  0
 46248  1  0
 48249  1  0
 49250  1  0
 51251  1  0
 52252  1  0
 54253  1  0
 56254  1  0
 56255  1  0
 58256  1  0
 59257  1  0
 60258  1  0
 61259  1  0
 62260  1  0
 63261  1  0
 66262  1  0
 68263  1  0
 69264  1  0
 70265  1  0
 70266  1  0
 71267  1  0
 71268  1  0
 72269  1  0
 72270  1  0
 73271  1  0
 73272  1  0
 74273  1  0
 77274  1  0
 78275  1  0
 78276  1  0
 80277  1  0
 81278  1  0
 84279  1  0
 85280  1  0
 86281  1  0
 87282  1  0
 88283  1  0
 91284  1  0
 91285  1  0
 92286  1  0
 95287  1  0
 96288  1  0
 96289  1  0
 97290  1  0
 97291  1  0
 98292  1  0
 98293  1  0
 99294  1  0
 99295  1  0
100296  1  0
100297  1  0
102298  1  0
103299  1  0
103300  1  0
104301  1  0
104302  1  0
105303  1  0
105304  1  0
108305  1  0
110306  1  0
112307  1  0
113308  1  0
113309  1  0
113310  1  0
114311  1  0
114312  1  0
114313  1  0
115314  1  0
118315  1  0
118316  1  0
119317  1  0
122318  1  0
123319  1  0
123320  1  0
124321  1  0
124322  1  0
125323  1  0
125324  1  0
126325  1  0
126326  1  0
127327  1  0
127328  1  0
128329  1  0
131330  1  0
132331  1  0
132332  1  0
133333  1  0
133334  1  0
134335  1  0
134336  1  0
135337  1  0
135338  1  0
136339  1  0
136340  1  0
137341  1  0
140342  1  0
142343  1  0
143344  1  0
144345  1  0
144346  1  0
145347  1  0
145348  1  0
146349  1  0
146350  1  0
147351  1  0
147352  1  0
148353  1  0
151354  1  0
153355  1  0
154356  1  0
155357  1  0
155358  1  0
156359  1  0
156360  1  0
157361  1  0
157362  1  0
158363  1  0
158364  1  0
160365  1  0
161366  1  0
161367  1  0
162368  1  0
162369  1  0
163370  1  0
163371  1  0
166372  1  0
168373  1  0
170374  1  0
171375  1  0
171376  1  0
171377  1  0
172378  1  0
172379  1  0
172380  1  0
173381  1  0
176382  1  0
177383  1  0
177384  1  0
178385  1  0
178386  1  0
179387  1  0
179388  1  0
180389  1  0
180390  1  0
181391  1  0
181392  1  0
182393  1  0
184394  1  0
186395  1  0
187396  1  0
187397  1  0
187398  1  0
188399  1  0
188400  1  0
188401  1  0
189402  1  0
192403  1  0
193404  1  0
193405  1  0
195406  1  0
196407  1  0
197408  1  0
199409  1  0
200410  1  0
202411  1  0
203412  1  0
203413  1  0
204414  1  0
204415  1  0
205416  1  0
205417  1  0
208418  1  0
M  END
>  <ALOGPS_LOGP>  (1) 
-0.95

>  <ALOGPS_LOGS>  (1) 
-4.79

>  <ALOGPS_SOLUBILITY>  (1) 
4.81e-02 g/l

>  <DATABASE_ID>  (1) 
DB01284

>  <DATABASE_NAME>  (1) 
drugbank

>  <DRUGBANK_ID>  (1) 
DB01284

>  <DRUG_GROUPS>  (1) 
approved

>  <EXACT_MASS>  (1) 
2931.580641316

>  <FORMULA>  (1) 
C136H210N40O31S

>  <GENERIC_NAME>  (1) 
Tetracosactide

>  <INCHI_IDENTIFIER>  (1) 
InChI=1S/C136H210N40O31S/c1-75(2)109(127(200)154-71-106(181)156-88(31-13-17-52-137)114(187)158-89(32-14-18-53-138)115(188)159-91(35-21-56-149-134(142)143)116(189)164-96(37-23-58-151-136(146)147)131(204)175-60-25-39-104(175)126(199)173-111(77(5)6)128(201)163-90(33-15-19-54-139)120(193)171-110(76(3)4)129(202)169-101(65-80-43-47-84(180)48-44-80)132(205)176-61-26-40-105(176)133(206)207)172-125(198)103-38-24-59-174(103)130(203)95(34-16-20-55-140)157-107(182)70-153-113(186)99(66-81-68-152-87-30-12-11-29-85(81)87)167-117(190)92(36-22-57-150-135(144)145)160-121(194)98(63-78-27-9-8-10-28-78)166-123(196)100(67-82-69-148-74-155-82)168-118(191)93(49-50-108(183)184)161-119(192)94(51-62-208-7)162-124(197)102(73-178)170-122(195)97(165-112(185)86(141)72-177)64-79-41-45-83(179)46-42-79/h8-12,27-30,41-48,68-69,74-77,86,88-105,109-111,152,177-180H,13-26,31-40,49-67,70-73,137-141H2,1-7H3,(H,148,155)(H,153,186)(H,154,200)(H,156,181)(H,157,182)(H,158,187)(H,159,188)(H,160,194)(H,161,192)(H,162,197)(H,163,201)(H,164,189)(H,165,185)(H,166,196)(H,167,190)(H,168,191)(H,169,202)(H,170,195)(H,171,193)(H,172,198)(H,173,199)(H,183,184)(H,206,207)(H4,142,143,149)(H4,144,145,150)(H4,146,147,151)/t86-,88-,89-,90-,91-,92-,93-,94-,95-,96-,97-,98-,99-,100-,101-,102-,103-,104-,105-,109-,110-,111-/m0/s1

>  <INCHI_KEY>  (1) 
ZOEFCCMDUURGSE-SQKVDDBVSA-N

>  <JCHEM_ACCEPTOR_COUNT>  (1) 
46

>  <JCHEM_ATOM_COUNT>  (1) 
418

>  <JCHEM_AVERAGE_POLARIZABILITY>  (1) 
309.3538357471915

>  <JCHEM_BIOAVAILABILITY>  (1) 
0

>  <JCHEM_DONOR_COUNT>  (1) 
42

>  <JCHEM_FORMAL_CHARGE>  (1) 
0

>  <JCHEM_GHOSE_FILTER>  (1) 
0

>  <JCHEM_IUPAC>  (1) 
(2S)-1-[(2S)-2-[(2S)-2-[(2S)-6-amino-2-[(2S)-2-{[(2S)-1-[(2S)-2-[(2S)-2-[(2S)-6-amino-2-[(2S)-6-amino-2-{2-[(2S)-2-{[(2S)-1-[(2S)-6-amino-2-{2-[(2S)-2-[(2S)-2-[(2S)-2-[(2S)-2-[(2S)-2-[(2S)-2-[(2S)-2-[(2S)-2-[(2S)-2-amino-3-hydroxypropanamido]-3-(4-hydroxyphenyl)propanamido]-3-hydroxypropanamido]-4-(methylsulfanyl)butanamido]-4-carboxybutanamido]-3-(1H-imidazol-5-yl)propanamido]-3-phenylpropanamido]-5-carbamimidamidopentanamido]-3-(1H-indol-3-yl)propanamido]acetamido}hexanoyl]pyrrolidin-2-yl]formamido}-3-methylbutanamido]acetamido}hexanamido]hexanamido]-5-carbamimidamidopentanamido]-5-carbamimidamidopentanoyl]pyrrolidin-2-yl]formamido}-3-methylbutanamido]hexanamido]-3-methylbutanamido]-3-(4-hydroxyphenyl)propanoyl]pyrrolidine-2-carboxylic acid

>  <JCHEM_LOGP>  (1) 
-14.065533676163856

>  <JCHEM_MDDR_LIKE_RULE>  (1) 
1

>  <JCHEM_NUMBER_OF_RINGS>  (1) 
9

>  <JCHEM_PHYSIOLOGICAL_CHARGE>  (1) 
6

>  <JCHEM_PKA>  (1) 
3.668667632192197

>  <JCHEM_PKA_STRONGEST_ACIDIC>  (1) 
3.03251153787585

>  <JCHEM_PKA_STRONGEST_BASIC>  (1) 
12.384761891079973

>  <JCHEM_POLAR_SURFACE_AREA>  (1) 
1158.72

>  <JCHEM_REFRACTIVITY>  (1) 
790.9825000000003

>  <JCHEM_ROTATABLE_BOND_COUNT>  (1) 
93

>  <JCHEM_RULE_OF_FIVE>  (1) 
0

>  <JCHEM_TRADITIONAL_IUPAC>  (1) 
cosyntropin

>  <JCHEM_VEBER_RULE>  (1) 
0

>  <MOLECULAR_WEIGHT>  (1) 
2933.49

>  <PRODUCTS>  (1) 
Cortrosyn; Cortrosyn Inj 0.25mg; Cosyntropin; Synacthen Depot

>  <SALTS>  (1) 
Tetracosactide acetate

>  <SMILES>  (1) 
CSCC[C@H](NC(=O)[C@H](CO)NC(=O)[C@H](CC1=CC=C(O)C=C1)NC(=O)[C@@H](N)CO)C(=O)N[C@@H](CCC(O)=O)C(=O)N[C@@H](CC1=CN=CN1)C(=O)N[C@@H](CC1=CC=CC=C1)C(=O)N[C@@H](CCCNC(N)=N)C(=O)N[C@@H](CC1=CNC2=C1C=CC=C2)C(=O)NCC(=O)N[C@@H](CCCCN)C(=O)N1CCC[C@H]1C(=O)N[C@@H](C(C)C)C(=O)NCC(=O)N[C@@H](CCCCN)C(=O)N[C@@H](CCCCN)C(=O)N[C@@H](CCCNC(N)=N)C(=O)N[C@@H](CCCNC(N)=N)C(=O)N1CCC[C@H]1C(=O)N[C@@H](C(C)C)C(=O)N[C@@H](CCCCN)C(=O)N[C@@H](C(C)C)C(=O)N[C@@H](CC1=CC=C(O)C=C1)C(=O)N1CCC[C@H]1C(O)=O

>  <SYNONYMS>  (1) 
adrenocorticotropic hormone 1-24; Adrenocorticotropic hormone fragment 1-24 human, rat; alpha(1-24)-corticotrophin; ATCH (1-24); beta(1-24)-corticotrophin; Corticotropin tetracosapeptide; corticotropin-(1-24); corticotropin-(1-24) tetracosapeptide; Cosyntropin; Tetracosactide; Tetracosactrin; α1-24-corticotrophin; β1-24-corticotrophin

$$$$
