1619
     RDKit          2D

 39 42  0  0  1  0  0  0  0  0999 V2000
    5.8199   -1.2064    0.0000 N   0  0  0  0  0  0  0  0  0  0  0  0
    3.7350   -0.2790    0.0000 C   0  0  0  0  0  0  0  0  0  0  0  0
    4.4024   -0.7639    0.0000 C   0  0  0  0  0  0  0  0  0  0  0  0
    4.1474   -1.5485    0.0000 C   0  0  0  0  0  0  0  0  0  0  0  0
    5.2400   -0.5723    0.0000 C   0  0  0  0  0  0  0  0  0  0  0  0
    3.0675   -0.7639    0.0000 C   0  0  0  0  0  0  0  0  0  0  0  0
    4.7125   -2.1959    0.0000 C   0  0  0  0  0  0  0  0  0  0  0  0
    3.3225   -1.5485    0.0000 C   0  0  0  0  0  0  0  0  0  0  0  0
    5.5543   -2.0237    0.0000 C   0  0  0  0  0  0  0  0  0  0  0  0
    3.7350    0.5460    0.0000 C   0  0  0  0  0  0  0  0  0  0  0  0
    2.2298   -0.5723    0.0000 C   0  0  0  0  0  0  0  0  0  0  0  0
    2.7574   -2.1959    0.0000 C   0  0  0  0  0  0  0  0  0  0  0  0
    6.6262   -1.0319    0.0000 C   0  0  0  0  0  0  0  0  0  0  0  0
    3.0205    0.9584    0.0000 C   0  0  0  0  0  0  0  0  0  0  0  0
    4.4494    0.9584    0.0000 C   0  0  0  0  0  0  0  0  0  0  0  0
    1.6499   -1.2064    0.0000 C   0  0  0  0  0  0  0  0  0  0  0  0
    1.9155   -2.0237    0.0000 C   0  0  0  0  0  0  0  0  0  0  0  0
    3.0205    1.7834    0.0000 C   0  0  0  0  0  0  0  0  0  0  0  0
    4.4494    1.7834    0.0000 C   0  0  0  0  0  0  0  0  0  0  0  0
    3.7350    2.1959    0.0000 C   0  0  0  0  0  0  0  0  0  0  0  0
    0.0000    0.0000    0.0000 H   0  0  0  0  0  0  0  0  0  0  0  0
    0.0000    0.0000    0.0000 H   0  0  0  0  0  0  0  0  0  0  0  0
    0.0000    0.0000    0.0000 H   0  0  0  0  0  0  0  0  0  0  0  0
    0.0000    0.0000    0.0000 H   0  0  0  0  0  0  0  0  0  0  0  0
    0.0000    0.0000    0.0000 H   0  0  0  0  0  0  0  0  0  0  0  0
    0.0000    0.0000    0.0000 H   0  0  0  0  0  0  0  0  0  0  0  0
    0.0000    0.0000    0.0000 H   0  0  0  0  0  0  0  0  0  0  0  0
    0.0000    0.0000    0.0000 H   0  0  0  0  0  0  0  0  0  0  0  0
    0.0000    0.0000    0.0000 H   0  0  0  0  0  0  0  0  0  0  0  0
    0.0000    0.0000    0.0000 H   0  0  0  0  0  0  0  0  0  0  0  0
    0.0000    0.0000    0.0000 H   0  0  0  0  0  0  0  0  0  0  0  0
    0.0000    0.0000    0.0000 H   0  0  0  0  0  0  0  0  0  0  0  0
    0.0000    0.0000    0.0000 H   0  0  0  0  0  0  0  0  0  0  0  0
    0.0000    0.0000    0.0000 H   0  0  0  0  0  0  0  0  0  0  0  0
    0.0000    0.0000    0.0000 H   0  0  0  0  0  0  0  0  0  0  0  0
    0.0000    0.0000    0.0000 H   0  0  0  0  0  0  0  0  0  0  0  0
    0.0000    0.0000    0.0000 H   0  0  0  0  0  0  0  0  0  0  0  0
    0.0000    0.0000    0.0000 H   0  0  0  0  0  0  0  0  0  0  0  0
    0.0000    0.0000    0.0000 H   0  0  0  0  0  0  0  0  0  0  0  0
  1  5  1  0
  1  9  1  0
  1 13  1  0
  2  3  1  0
  2  6  1  0
  2 10  1  0
  3  4  2  0
  3  5  1  0
  4  7  1  0
  4  8  1  0
  6  8  2  0
  6 11  1  0
  7  9  1  0
  8 12  1  0
 10 14  2  0
 10 15  1  0
 11 16  2  0
 12 17  2  0
 14 18  1  0
 15 19  2  0
 16 17  1  0
 18 20  2  0
 19 20  1  0
  2 21  1  0
  5 22  1  0
  5 23  1  0
  7 24  1  0
  7 25  1  0
  9 26  1  0
  9 27  1  0
 11 28  1  0
 12 29  1  0
 13 30  1  0
 13 31  1  0
 13 32  1  0
 14 33  1  0
 15 34  1  0
 16 35  1  0
 17 36  1  0
 18 37  1  0
 19 38  1  0
 20 39  1  0
M  END
>  <ALOGPS_LOGP>  (1) 
4.04

>  <ALOGPS_LOGS>  (1) 
-3.97

>  <ALOGPS_SOLUBILITY>  (1) 
2.77e-02 g/l

>  <DATABASE_ID>  (1) 
DB01619

>  <DATABASE_NAME>  (1) 
drugbank

>  <DRUGBANK_ID>  (1) 
DB01619

>  <DRUG_GROUPS>  (1) 
approved

>  <EXACT_MASS>  (1) 
261.151749613

>  <FORMULA>  (1) 
C19H19N

>  <GENERIC_NAME>  (1) 
Phenindamine

>  <INCHI_IDENTIFIER>  (1) 
InChI=1S/C19H19N/c1-20-12-11-16-15-9-5-6-10-17(15)19(18(16)13-20)14-7-3-2-4-8-14/h2-10,19H,11-13H2,1H3

>  <INCHI_KEY>  (1) 
ISFHAYSTHMVOJR-UHFFFAOYSA-N

>  <JCHEM_ACCEPTOR_COUNT>  (1) 
1

>  <JCHEM_AVERAGE_POLARIZABILITY>  (1) 
31.128674397934326

>  <JCHEM_BIOAVAILABILITY>  (1) 
1

>  <JCHEM_DONOR_COUNT>  (1) 
0

>  <JCHEM_FORMAL_CHARGE>  (1) 
0

>  <JCHEM_GHOSE_FILTER>  (1) 
1

>  <JCHEM_IUPAC>  (1) 
2-methyl-9-phenyl-1H,2H,3H,4H,9H-indeno[2,1-c]pyridine

>  <JCHEM_LOGP>  (1) 
3.6197311406666666

>  <JCHEM_MDDR_LIKE_RULE>  (1) 
0

>  <JCHEM_NUMBER_OF_RINGS>  (1) 
4

>  <JCHEM_PHYSIOLOGICAL_CHARGE>  (1) 
1

>  <JCHEM_PKA_STRONGEST_ACIDIC>  (1) 
18.006232040525507

>  <JCHEM_PKA_STRONGEST_BASIC>  (1) 
9.000432194937565

>  <JCHEM_POLAR_SURFACE_AREA>  (1) 
3.24

>  <JCHEM_REFRACTIVITY>  (1) 
85.03330000000003

>  <JCHEM_ROTATABLE_BOND_COUNT>  (1) 
1

>  <JCHEM_RULE_OF_FIVE>  (1) 
1

>  <JCHEM_TRADITIONAL_IUPAC>  (1) 
phenindamine

>  <JCHEM_VEBER_RULE>  (1) 
1

>  <MOLECULAR_WEIGHT>  (1) 
261.3609

>  <SMILES>  (1) 
CN1CCC2=C(C1)C(C1=CC=CC=C21)C1=CC=CC=C1

>  <SYNONYMS>  (1) 
Fenindamina; Phenindaminum

$$$$
