 
     RDKit          2D

 71 75  0  0  1  0  0  0  0  0999 V2000
   14.0105   -9.9160    0.0000 C   0  0  0  0  0  0  0  0  0  0  0  0
   14.0105  -10.7680    0.0000 C   0  0  0  0  0  0  0  0  0  0  0  0
   14.7250  -11.1803    0.0000 C   0  0  0  0  0  0  0  0  0  0  0  0
   14.7250   -9.5038    0.0000 C   0  0  0  0  0  0  0  0  0  0  0  0
   15.4397   -9.9160    0.0000 C   0  0  0  0  0  0  0  0  0  0  0  0
   15.4397  -10.7680    0.0000 C   0  0  0  0  0  0  0  0  0  0  0  0
   16.1542  -11.1803    0.0000 C   0  0  0  0  0  0  0  0  0  0  0  0
   16.1542   -9.5038    0.0000 C   0  0  0  0  0  0  0  0  0  0  0  0
   16.8688   -9.9435    0.0000 C   0  0  0  0  0  0  0  0  0  0  0  0
   16.8688  -10.7680    0.0000 C   0  0  0  0  0  0  0  0  0  0  0  0
   17.5834  -11.1803    0.0000 C   0  0  0  0  0  0  0  0  0  0  0  0
   17.6109   -9.5313    0.0000 C   0  0  0  0  0  0  0  0  0  0  0  0
   18.2980   -9.9435    0.0000 C   0  0  0  0  0  0  0  0  0  0  0  0
   18.2980  -10.7680    0.0000 C   0  0  0  0  0  0  0  0  0  0  0  0
   19.0126  -11.1803    0.0000 C   0  0  0  0  0  0  0  0  0  0  0  0
   19.7272  -10.7955    0.0000 C   0  0  0  0  0  0  0  0  0  0  0  0
   19.7272   -9.9710    0.0000 C   0  0  0  0  0  0  0  0  0  0  0  0
   19.0400   -9.5313    0.0000 C   0  0  0  0  0  0  0  0  0  0  0  0
   20.4418  -11.2078    0.0000 C   0  0  0  0  0  0  0  0  0  0  0  0
   21.1564  -10.7955    0.0000 N   0  0  0  0  0  0  0  0  0  0  0  0
   21.8709  -11.2078    0.0000 C   0  0  0  0  0  0  0  0  0  0  0  0
   22.5855  -10.7955    0.0000 N   0  0  0  0  0  0  0  0  0  0  0  0
   23.3794  -11.0612    0.0000 C   0  0  0  0  0  0  0  0  0  0  0  0
   23.8772  -10.4131    0.0000 C   0  0  0  0  0  0  0  0  0  0  0  0
   23.4049   -9.7077    0.0000 C   0  0  0  0  0  0  0  0  0  0  0  0
   22.5992   -9.9676    0.0000 C   0  0  0  0  0  0  0  0  0  0  0  0
   19.0400   -8.7067    0.0000 N   0  0  0  0  0  0  0  0  0  0  0  0
   19.7547   -8.3220    0.0000 C   0  0  0  0  0  0  0  0  0  0  0  0
   18.3255   -8.2945    0.0000 C   0  0  0  0  0  0  0  0  0  0  0  0
   16.4841   -8.6239    0.0000 C   0  0  0  0  0  0  0  0  0  0  0  0
   15.7420   -8.6239    0.0000 O   0  0  0  0  0  0  0  0  0  0  0  0
   14.7250  -12.0049    0.0000 O   0  0  0  0  0  0  0  0  0  0  0  0
   16.1542  -12.0049    0.0000 O   0  0  0  0  0  0  0  0  0  0  0  0
   17.5834  -12.0049    0.0000 O   0  0  0  0  0  0  0  0  0  0  0  0
   19.0126  -12.0323    0.0000 O   0  0  0  0  0  0  0  0  0  0  0  0
   20.4418  -12.0323    0.0000 O   0  0  0  0  0  0  0  0  0  0  0  0
   20.4693   -9.5588    0.0000 O   0  0  0  0  0  0  0  0  0  0  0  0
   18.2980  -11.5925    0.0000 O   0  0  0  0  0  0  0  0  0  0  0  0
    0.0000    0.0000    0.0000 H   0  0  0  0  0  0  0  0  0  0  0  0
    0.0000    0.0000    0.0000 H   0  0  0  0  0  0  0  0  0  0  0  0
    0.0000    0.0000    0.0000 H   0  0  0  0  0  0  0  0  0  0  0  0
    0.0000    0.0000    0.0000 H   0  0  0  0  0  0  0  0  0  0  0  0
    0.0000    0.0000    0.0000 H   0  0  0  0  0  0  0  0  0  0  0  0
    0.0000    0.0000    0.0000 H   0  0  0  0  0  0  0  0  0  0  0  0
    0.0000    0.0000    0.0000 H   0  0  0  0  0  0  0  0  0  0  0  0
    0.0000    0.0000    0.0000 H   0  0  0  0  0  0  0  0  0  0  0  0
    0.0000    0.0000    0.0000 H   0  0  0  0  0  0  0  0  0  0  0  0
    0.0000    0.0000    0.0000 H   0  0  0  0  0  0  0  0  0  0  0  0
    0.0000    0.0000    0.0000 H   0  0  0  0  0  0  0  0  0  0  0  0
    0.0000    0.0000    0.0000 H   0  0  0  0  0  0  0  0  0  0  0  0
    0.0000    0.0000    0.0000 H   0  0  0  0  0  0  0  0  0  0  0  0
    0.0000    0.0000    0.0000 H   0  0  0  0  0  0  0  0  0  0  0  0
    0.0000    0.0000    0.0000 H   0  0  0  0  0  0  0  0  0  0  0  0
    0.0000    0.0000    0.0000 H   0  0  0  0  0  0  0  0  0  0  0  0
    0.0000    0.0000    0.0000 H   0  0  0  0  0  0  0  0  0  0  0  0
    0.0000    0.0000    0.0000 H   0  0  0  0  0  0  0  0  0  0  0  0
    0.0000    0.0000    0.0000 H   0  0  0  0  0  0  0  0  0  0  0  0
    0.0000    0.0000    0.0000 H   0  0  0  0  0  0  0  0  0  0  0  0
    0.0000    0.0000    0.0000 H   0  0  0  0  0  0  0  0  0  0  0  0
    0.0000    0.0000    0.0000 H   0  0  0  0  0  0  0  0  0  0  0  0
    0.0000    0.0000    0.0000 H   0  0  0  0  0  0  0  0  0  0  0  0
    0.0000    0.0000    0.0000 H   0  0  0  0  0  0  0  0  0  0  0  0
    0.0000    0.0000    0.0000 H   0  0  0  0  0  0  0  0  0  0  0  0
    0.0000    0.0000    0.0000 H   0  0  0  0  0  0  0  0  0  0  0  0
    0.0000    0.0000    0.0000 H   0  0  0  0  0  0  0  0  0  0  0  0
    0.0000    0.0000    0.0000 H   0  0  0  0  0  0  0  0  0  0  0  0
    0.0000    0.0000    0.0000 H   0  0  0  0  0  0  0  0  0  0  0  0
    0.0000    0.0000    0.0000 H   0  0  0  0  0  0  0  0  0  0  0  0
    0.0000    0.0000    0.0000 H   0  0  0  0  0  0  0  0  0  0  0  0
    0.0000    0.0000    0.0000 H   0  0  0  0  0  0  0  0  0  0  0  0
    0.0000    0.0000    0.0000 H   0  0  0  0  0  0  0  0  0  0  0  0
  5  4  1  0
 21 22  1  0
  4  1  2  0
  9 10  1  0
 10 11  2  0
 22 23  1  0
 23 24  1  0
 24 25  1  0
 25 26  1  0
 26 22  1  0
 11 14  1  0
 18 27  1  6
 13 12  1  0
 27 28  1  0
 12  9  1  0
 27 29  1  0
  1  2  1  0
  2  3  2  0
  8 30  1  6
  5  6  2  0
  8 31  1  0
  6  7  1  0
  3 32  1  0
  7 10  1  0
  7 33  2  0
 13 14  1  0
 11 34  1  0
 14 15  1  0
 15 35  2  0
 15 16  1  0
 19 36  2  0
 16 17  2  0
 17 37  1  0
 17 18  1  0
 14 38  1  6
 18 13  1  0
  9  8  1  0
 16 19  1  0
  8  5  1  0
 19 20  1  0
  3  6  1  0
 20 21  1  0
  1 39  1  0
  2 40  1  0
  4 41  1  0
  9 42  1  6
 12 43  1  0
 12 44  1  0
 13 45  1  6
 18 46  1  0
 20 47  1  0
 21 48  1  0
 21 49  1  0
 23 50  1  0
 23 51  1  0
 24 52  1  0
 24 53  1  0
 25 54  1  0
 25 55  1  0
 26 56  1  0
 26 57  1  0
 28 58  1  0
 28 59  1  0
 28 60  1  0
 29 61  1  0
 29 62  1  0
 29 63  1  0
 30 64  1  0
 30 65  1  0
 30 66  1  0
 31 67  1  0
 32 68  1  0
 34 69  1  0
 37 70  1  0
 38 71  1  0
M  END
>  <ALOGPS_LOGP>  (1) 
-0.08

>  <ALOGPS_LOGS>  (1) 
-2.47

>  <ALOGPS_SOLUBILITY>  (1) 
1.81e+00 g/l

>  <DATABASE_ID>  (1) 
DB01301

>  <DATABASE_NAME>  (1) 
drugbank

>  <DRUGBANK_ID>  (1) 
DB01301

>  <DRUG_GROUPS>  (1) 
approved

>  <EXACT_MASS>  (1) 
527.226765047

>  <FORMULA>  (1) 
C27H33N3O8

>  <GENERIC_NAME>  (1) 
Rolitetracycline

>  <INCHI_IDENTIFIER>  (1) 
InChI=1S/C27H33N3O8/c1-26(37)13-7-6-8-16(31)17(13)21(32)18-14(26)11-15-20(29(2)3)22(33)19(24(35)27(15,38)23(18)34)25(36)28-12-30-9-4-5-10-30/h6-8,14-15,20,31,33-34,37-38H,4-5,9-12H2,1-3H3,(H,28,36)/t14-,15-,20-,26+,27-/m0/s1

>  <INCHI_KEY>  (1) 
HMEYVGGHISAPJR-IAHYZSEUSA-N

>  <JCHEM_ACCEPTOR_COUNT>  (1) 
10

>  <JCHEM_AVERAGE_POLARIZABILITY>  (1) 
54.05074475943957

>  <JCHEM_BIOAVAILABILITY>  (1) 
0

>  <JCHEM_DONOR_COUNT>  (1) 
6

>  <JCHEM_FORMAL_CHARGE>  (1) 
0

>  <JCHEM_GHOSE_FILTER>  (1) 
0

>  <JCHEM_IUPAC>  (1) 
(4S,4aS,5aS,6S,12aS)-4-(dimethylamino)-3,6,10,12,12a-pentahydroxy-6-methyl-1,11-dioxo-N-(pyrrolidin-1-ylmethyl)-1,4,4a,5,5a,6,11,12a-octahydrotetracene-2-carboxamide

>  <JCHEM_LOGP>  (1) 
-3.8152645379381687

>  <JCHEM_MDDR_LIKE_RULE>  (1) 
0

>  <JCHEM_NUMBER_OF_RINGS>  (1) 
5

>  <JCHEM_PHYSIOLOGICAL_CHARGE>  (1) 
-1

>  <JCHEM_PKA>  (1) 
4.638711469579521

>  <JCHEM_PKA_STRONGEST_ACIDIC>  (1) 
0.3143941061692841

>  <JCHEM_PKA_STRONGEST_BASIC>  (1) 
8.244273489243113

>  <JCHEM_POLAR_SURFACE_AREA>  (1) 
170.86999999999998

>  <JCHEM_REFRACTIVITY>  (1) 
139.45460000000003

>  <JCHEM_ROTATABLE_BOND_COUNT>  (1) 
4

>  <JCHEM_RULE_OF_FIVE>  (1) 
0

>  <JCHEM_TRADITIONAL_IUPAC>  (1) 
rolitetracycline

>  <JCHEM_VEBER_RULE>  (1) 
0

>  <MOLECULAR_WEIGHT>  (1) 
527.5662

>  <PRODUCTS>  (1) 
Reverin 275mg

>  <SMILES>  (1) 
[H][C@@]12C[C@@]3([H])C(C(=O)C4=C(O)C=CC=C4[C@@]3(C)O)=C(O)[C@]1(O)C(=O)C(C(=O)NCN1CCCC1)=C(O)[C@H]2N(C)C

$$$$
