1251
     RDKit          2D

 70 73  0  0  0  0  0  0  0  0999 V2000
    3.7935    0.3572    0.0000 S   0  0  0  0  0  0  0  0  0  0  0  0
    6.6514   -3.7678    0.0000 O   0  0  0  0  0  0  0  0  0  0  0  0
    8.0803   -1.2928    0.0000 O   0  0  0  0  0  0  0  0  0  0  0  0
    3.7935    2.0072    0.0000 O   0  0  0  0  0  0  0  0  0  0  0  0
   10.9927   -2.0978    0.0000 O   0  0  0  0  0  0  0  0  0  0  0  0
    3.3810   -0.3572    0.0000 O   0  0  0  0  0  0  0  0  0  0  0  0
    4.2060    1.0717    0.0000 O   0  0  0  0  0  0  0  0  0  0  0  0
    2.3645    2.0072    0.0000 N   0  0  0  0  0  0  0  0  0  0  0  0
    7.3658   -2.5303    0.0000 N   0  0  0  0  0  0  0  0  0  0  0  0
    3.0790    0.7697    0.0000 N   0  0  0  0  0  0  0  0  0  0  0  0
    2.3645    2.8323    0.0000 C   0  0  0  0  0  0  0  0  0  0  0  0
    1.6500    3.2448    0.0000 C   0  0  0  0  0  0  0  0  0  0  0  0
    3.0790    3.2448    0.0000 C   0  0  0  0  0  0  0  0  0  0  0  0
    1.6500    4.0698    0.0000 C   0  0  0  0  0  0  0  0  0  0  0  0
    3.0790    4.0698    0.0000 C   0  0  0  0  0  0  0  0  0  0  0  0
    2.3645    4.4823    0.0000 C   0  0  0  0  0  0  0  0  0  0  0  0
    8.0803   -3.7678    0.0000 C   0  0  0  0  0  0  0  0  0  0  0  0
    8.7948   -3.3553    0.0000 C   0  0  0  0  0  0  0  0  0  0  0  0
    7.3658   -3.3553    0.0000 C   0  0  0  0  0  0  0  0  0  0  0  0
    8.7948   -2.5303    0.0000 C   0  0  0  0  0  0  0  0  0  0  0  0
    7.6678   -4.4823    0.0000 C   0  0  0  0  0  0  0  0  0  0  0  0
    8.4928   -4.4823    0.0000 C   0  0  0  0  0  0  0  0  0  0  0  0
    6.6514   -2.1178    0.0000 C   0  0  0  0  0  0  0  0  0  0  0  0
    8.0803   -2.1178    0.0000 C   0  0  0  0  0  0  0  0  0  0  0  0
    3.0790    1.5947    0.0000 C   0  0  0  0  0  0  0  0  0  0  0  0
    9.5323   -3.7964    0.0000 C   0  0  0  0  0  0  0  0  0  0  0  0
    6.6514   -1.2928    0.0000 C   0  0  0  0  0  0  0  0  0  0  0  0
    9.5323   -2.0892    0.0000 C   0  0  0  0  0  0  0  0  0  0  0  0
    5.9369   -0.8803    0.0000 C   0  0  0  0  0  0  0  0  0  0  0  0
   10.2798   -3.3725    0.0000 C   0  0  0  0  0  0  0  0  0  0  0  0
   10.2798   -2.5131    0.0000 C   0  0  0  0  0  0  0  0  0  0  0  0
    4.5079   -0.0553    0.0000 C   0  0  0  0  0  0  0  0  0  0  0  0
    5.2224   -1.2928    0.0000 C   0  0  0  0  0  0  0  0  0  0  0  0
    5.9369   -0.0553    0.0000 C   0  0  0  0  0  0  0  0  0  0  0  0
    4.5079   -0.8803    0.0000 C   0  0  0  0  0  0  0  0  0  0  0  0
    5.2224    0.3572    0.0000 C   0  0  0  0  0  0  0  0  0  0  0  0
   11.7088   -2.5076    0.0000 C   0  0  0  0  0  0  0  0  0  0  0  0
    0.0000    0.0000    0.0000 H   0  0  0  0  0  0  0  0  0  0  0  0
    0.0000    0.0000    0.0000 H   0  0  0  0  0  0  0  0  0  0  0  0
    0.0000    0.0000    0.0000 H   0  0  0  0  0  0  0  0  0  0  0  0
    0.0000    0.0000    0.0000 H   0  0  0  0  0  0  0  0  0  0  0  0
    0.0000    0.0000    0.0000 H   0  0  0  0  0  0  0  0  0  0  0  0
    0.0000    0.0000    0.0000 H   0  0  0  0  0  0  0  0  0  0  0  0
    0.0000    0.0000    0.0000 H   0  0  0  0  0  0  0  0  0  0  0  0
    0.0000    0.0000    0.0000 H   0  0  0  0  0  0  0  0  0  0  0  0
    0.0000    0.0000    0.0000 H   0  0  0  0  0  0  0  0  0  0  0  0
    0.0000    0.0000    0.0000 H   0  0  0  0  0  0  0  0  0  0  0  0
    0.0000    0.0000    0.0000 H   0  0  0  0  0  0  0  0  0  0  0  0
    0.0000    0.0000    0.0000 H   0  0  0  0  0  0  0  0  0  0  0  0
    0.0000    0.0000    0.0000 H   0  0  0  0  0  0  0  0  0  0  0  0
    0.0000    0.0000    0.0000 H   0  0  0  0  0  0  0  0  0  0  0  0
    0.0000    0.0000    0.0000 H   0  0  0  0  0  0  0  0  0  0  0  0
    0.0000    0.0000    0.0000 H   0  0  0  0  0  0  0  0  0  0  0  0
    0.0000    0.0000    0.0000 H   0  0  0  0  0  0  0  0  0  0  0  0
    0.0000    0.0000    0.0000 H   0  0  0  0  0  0  0  0  0  0  0  0
    0.0000    0.0000    0.0000 H   0  0  0  0  0  0  0  0  0  0  0  0
    0.0000    0.0000    0.0000 H   0  0  0  0  0  0  0  0  0  0  0  0
    0.0000    0.0000    0.0000 H   0  0  0  0  0  0  0  0  0  0  0  0
    0.0000    0.0000    0.0000 H   0  0  0  0  0  0  0  0  0  0  0  0
    0.0000    0.0000    0.0000 H   0  0  0  0  0  0  0  0  0  0  0  0
    0.0000    0.0000    0.0000 H   0  0  0  0  0  0  0  0  0  0  0  0
    0.0000    0.0000    0.0000 H   0  0  0  0  0  0  0  0  0  0  0  0
    0.0000    0.0000    0.0000 H   0  0  0  0  0  0  0  0  0  0  0  0
    0.0000    0.0000    0.0000 H   0  0  0  0  0  0  0  0  0  0  0  0
    0.0000    0.0000    0.0000 H   0  0  0  0  0  0  0  0  0  0  0  0
    0.0000    0.0000    0.0000 H   0  0  0  0  0  0  0  0  0  0  0  0
    0.0000    0.0000    0.0000 H   0  0  0  0  0  0  0  0  0  0  0  0
    0.0000    0.0000    0.0000 H   0  0  0  0  0  0  0  0  0  0  0  0
    0.0000    0.0000    0.0000 H   0  0  0  0  0  0  0  0  0  0  0  0
    0.0000    0.0000    0.0000 H   0  0  0  0  0  0  0  0  0  0  0  0
  1  6  2  0
  1  7  2  0
  1 10  1  0
  1 32  1  0
  2 19  2  0
  3 24  2  0
  4 25  2  0
  5 31  1  0
  5 37  1  0
  8 11  1  0
  8 25  1  0
  9 19  1  0
  9 23  1  0
  9 24  1  0
 10 25  1  0
 11 12  1  0
 11 13  1  0
 12 14  1  0
 13 15  1  0
 14 16  1  0
 15 16  1  0
 17 18  1  0
 17 19  1  0
 17 21  1  0
 17 22  1  0
 18 20  2  0
 18 26  1  0
 20 24  1  0
 20 28  1  0
 23 27  1  0
 26 30  2  0
 27 29  1  0
 28 31  2  0
 29 33  2  0
 29 34  1  0
 30 31  1  0
 32 35  2  0
 32 36  1  0
 33 35  1  0
 34 36  2  0
  8 38  1  0
 10 39  1  0
 11 40  1  0
 12 41  1  0
 12 42  1  0
 13 43  1  0
 13 44  1  0
 14 45  1  0
 14 46  1  0
 15 47  1  0
 15 48  1  0
 16 49  1  0
 16 50  1  0
 21 51  1  0
 21 52  1  0
 21 53  1  0
 22 54  1  0
 22 55  1  0
 22 56  1  0
 23 57  1  0
 23 58  1  0
 26 59  1  0
 27 60  1  0
 27 61  1  0
 28 62  1  0
 30 63  1  0
 33 64  1  0
 34 65  1  0
 35 66  1  0
 36 67  1  0
 37 68  1  0
 37 69  1  0
 37 70  1  0
M  END
>  <ALOGPS_LOGP>  (1) 
3.59

>  <ALOGPS_LOGS>  (1) 
-5.38

>  <ALOGPS_SOLUBILITY>  (1) 
2.20e-03 g/l

>  <DATABASE_ID>  (1) 
DB01251

>  <DATABASE_NAME>  (1) 
drugbank

>  <DRUGBANK_ID>  (1) 
DB01251

>  <DRUG_GROUPS>  (1) 
approved; investigational

>  <EXACT_MASS>  (1) 
527.209006493

>  <FORMULA>  (1) 
C27H33N3O6S

>  <GENERIC_NAME>  (1) 
Gliquidone

>  <INCHI_IDENTIFIER>  (1) 
InChI=1S/C27H33N3O6S/c1-27(2)23-14-11-20(36-3)17-22(23)24(31)30(25(27)32)16-15-18-9-12-21(13-10-18)37(34,35)29-26(33)28-19-7-5-4-6-8-19/h9-14,17,19H,4-8,15-16H2,1-3H3,(H2,28,29,33)

>  <INCHI_KEY>  (1) 
LLJFMFZYVVLQKT-UHFFFAOYSA-N

>  <INTERNATIONAL_BRANDS>  (1) 
Devotan; Fordiab; Glidiab; Glunormal; Glurenor; Glurenorm; Jie Shi; Ka Rui Lin; Lodem

>  <JCHEM_ACCEPTOR_COUNT>  (1) 
6

>  <JCHEM_AVERAGE_POLARIZABILITY>  (1) 
57.25837634704889

>  <JCHEM_BIOAVAILABILITY>  (1) 
1

>  <JCHEM_DONOR_COUNT>  (1) 
2

>  <JCHEM_FORMAL_CHARGE>  (1) 
0

>  <JCHEM_GHOSE_FILTER>  (1) 
0

>  <JCHEM_IUPAC>  (1) 
1-cyclohexyl-3-{4-[2-(7-methoxy-4,4-dimethyl-1,3-dioxo-1,2,3,4-tetrahydroisoquinolin-2-yl)ethyl]benzenesulfonyl}urea

>  <JCHEM_LOGP>  (1) 
4.135768261333334

>  <JCHEM_MDDR_LIKE_RULE>  (1) 
1

>  <JCHEM_NUMBER_OF_RINGS>  (1) 
4

>  <JCHEM_PHYSIOLOGICAL_CHARGE>  (1) 
-1

>  <JCHEM_PKA>  (1) 
18.019571592713742

>  <JCHEM_PKA_STRONGEST_ACIDIC>  (1) 
4.320178426409894

>  <JCHEM_PKA_STRONGEST_BASIC>  (1) 
-4.7736564348725645

>  <JCHEM_POLAR_SURFACE_AREA>  (1) 
121.87999999999998

>  <JCHEM_REFRACTIVITY>  (1) 
139.48059999999998

>  <JCHEM_ROTATABLE_BOND_COUNT>  (1) 
6

>  <JCHEM_RULE_OF_FIVE>  (1) 
0

>  <JCHEM_TRADITIONAL_IUPAC>  (1) 
gliquidone

>  <JCHEM_VEBER_RULE>  (1) 
0

>  <MOLECULAR_WEIGHT>  (1) 
527.632

>  <SMILES>  (1) 
COC1=CC2=C(C=C1)C(C)(C)C(=O)N(CCC1=CC=C(C=C1)S(=O)(=O)NC(=O)NC1CCCCC1)C2=O

$$$$
