
     RDKit          2D

781826  0  0  0  0  0  0  0  0999 V2000
    2.8714    6.9655    0.0000 C   0  0  0  0  0  0  0  0  0  0  0  0
   -9.8257   -3.7032    0.0000 C   0  0  0  0  0  0  0  0  0  0  0  0
   -6.7029    6.2141    0.0000 C   0  0  0  0  0  0  0  0  0  0  0  0
  -22.2510   -5.5545    0.0000 C   0  0  0  0  0  0  0  0  0  0  0  0
    7.0651   -7.1784    0.0000 C   0  0  0  0  0  0  0  0  0  0  0  0
  -14.2936  -11.6007    0.0000 C   0  0  0  0  0  0  0  0  0  0  0  0
   19.0856   -5.2242    0.0000 C   0  0  0  0  0  0  0  0  0  0  0  0
   12.4530   -8.5287    0.0000 C   0  0  0  0  0  0  0  0  0  0  0  0
  -17.2867   -2.0117    0.0000 C   0  0  0  0  0  0  0  0  0  0  0  0
  -13.7509   11.1187    0.0000 C   0  0  0  0  0  0  0  0  0  0  0  0
  -11.1549    6.4803    0.0000 C   0  0  0  0  0  0  0  0  0  0  0  0
    8.6658    2.1433    0.0000 C   0  0  0  0  0  0  0  0  0  0  0  0
   -4.5893    5.8861    0.0000 C   0  0  0  0  0  0  0  0  0  0  0  0
    5.5593   -5.8108    0.0000 C   0  0  0  0  0  0  0  0  0  0  0  0
  -24.0748   -7.9086    0.0000 C   0  0  0  0  0  0  0  0  0  0  0  0
   23.1811   -1.9290    0.0000 C   0  0  0  0  0  0  0  0  0  0  0  0
    5.1185   -7.7210    0.0000 C   0  0  0  0  0  0  0  0  0  0  0  0
  -17.4643  -11.5412    0.0000 C   0  0  0  0  0  0  0  0  0  0  0  0
   17.5280   -6.5117    0.0000 C   0  0  0  0  0  0  0  0  0  0  0  0
   10.4540   -8.2327    0.0000 C   0  0  0  0  0  0  0  0  0  0  0  0
  -15.9821   -5.8335    0.0000 C   0  0  0  0  0  0  0  0  0  0  0  0
    4.4416   -4.1272    0.0000 C   0  0  0  0  0  0  0  0  0  0  0  0
   -9.0138   -9.7861    0.0000 C   0  0  0  0  0  0  0  0  0  0  0  0
  -19.0839    2.2272    0.0000 C   0  0  0  0  0  0  0  0  0  0  0  0
  -22.4754   -8.5111    0.0000 C   0  0  0  0  0  0  0  0  0  0  0  0
   21.9161   -1.2645    0.0000 C   0  0  0  0  0  0  0  0  0  0  0  0
    5.3595   -6.3126    0.0000 C   0  0  0  0  0  0  0  0  0  0  0  0
  -16.3805  -10.2491    0.0000 C   0  0  0  0  0  0  0  0  0  0  0  0
   17.1753   -5.1270    0.0000 C   0  0  0  0  0  0  0  0  0  0  0  0
   11.2470   -7.0440    0.0000 C   0  0  0  0  0  0  0  0  0  0  0  0
  -14.7314   -4.6132    0.0000 C   0  0  0  0  0  0  0  0  0  0  0  0
    5.8556   -3.9211    0.0000 C   0  0  0  0  0  0  0  0  0  0  0  0
   -9.5857   -8.2385    0.0000 C   0  0  0  0  0  0  0  0  0  0  0  0
  -17.4546    1.9366    0.0000 C   0  0  0  0  0  0  0  0  0  0  0  0
  -21.5798   -8.3567    0.0000 C   0  0  0  0  0  0  0  0  0  0  0  0
   21.4753   -0.5671    0.0000 C   0  0  0  0  0  0  0  0  0  0  0  0
    5.8866   -5.6779    0.0000 C   0  0  0  0  0  0  0  0  0  0  0  0
  -15.6606   -9.6863    0.0000 C   0  0  0  0  0  0  0  0  0  0  0  0
   17.3987   -4.3328    0.0000 C   0  0  0  0  0  0  0  0  0  0  0  0
   11.9867   -6.6785    0.0000 C   0  0  0  0  0  0  0  0  0  0  0  0
  -14.0822   -4.0045    0.0000 C   0  0  0  0  0  0  0  0  0  0  0  0
    6.6221   -4.2263    0.0000 C   0  0  0  0  0  0  0  0  0  0  0  0
   -9.7865   -7.3479    0.0000 C   0  0  0  0  0  0  0  0  0  0  0  0
  -16.5557    2.0150    0.0000 C   0  0  0  0  0  0  0  0  0  0  0  0
    0.5880    4.1474    0.0000 C   0  0  0  0  0  0  0  0  0  0  0  0
  -10.6757   -0.7039    0.0000 C   0  0  0  0  0  0  0  0  0  0  0  0
   -9.1618    3.4760    0.0000 C   0  0  0  0  0  0  0  0  0  0  0  0
  -11.6418    8.0665    0.0000 C   0  0  0  0  0  0  0  0  0  0  0  0
  -13.0288    4.6124    0.0000 C   0  0  0  0  0  0  0  0  0  0  0  0
    5.0436    1.9546    0.0000 C   0  0  0  0  0  0  0  0  0  0  0  0
   -4.0229    2.3034    0.0000 C   0  0  0  0  0  0  0  0  0  0  0  0
    1.7076   -5.5037    0.0000 C   0  0  0  0  0  0  0  0  0  0  0  0
   -6.4625    2.3044    0.0000 C   0  0  0  0  0  0  0  0  0  0  0  0
    6.3955   -2.8238    0.0000 C   0  0  0  0  0  0  0  0  0  0  0  0
    2.0784    5.7768    0.0000 C   0  0  0  0  0  0  0  0  0  0  0  0
   -9.8411   -2.2113    0.0000 C   0  0  0  0  0  0  0  0  0  0  0  0
   -7.7643    5.1858    0.0000 C   0  0  0  0  0  0  0  0  0  0  0  0
  -20.9060   -6.3397    0.0000 C   0  0  0  0  0  0  0  0  0  0  0  0
    7.0080   -5.7506    0.0000 C   0  0  0  0  0  0  0  0  0  0  0  0
  -14.0477  -10.0146    0.0000 C   0  0  0  0  0  0  0  0  0  0  0  0
   18.4527   -3.9431    0.0000 C   0  0  0  0  0  0  0  0  0  0  0  0
   12.9816   -7.2011    0.0000 C   0  0  0  0  0  0  0  0  0  0  0  0
  -15.7887   -2.0241    0.0000 C   0  0  0  0  0  0  0  0  0  0  0  0
  -13.0237    9.7890    0.0000 C   0  0  0  0  0  0  0  0  0  0  0  0
  -12.5807    5.7714    0.0000 C   0  0  0  0  0  0  0  0  0  0  0  0
    7.2518    1.9373    0.0000 C   0  0  0  0  0  0  0  0  0  0  0  0
   -4.2365    4.5013    0.0000 C   0  0  0  0  0  0  0  0  0  0  0  0
    6.8995   -5.3152    0.0000 C   0  0  0  0  0  0  0  0  0  0  0  0
   18.4168    1.2552    0.0000 C   0  0  0  0  0  0  0  0  0  0  0  0
    2.0556    2.5971    0.0000 C   0  0  0  0  0  0  0  0  0  0  0  0
   -9.2031    0.4278    0.0000 C   0  0  0  0  0  0  0  0  0  0  0  0
   -9.7588    5.3741    0.0000 C   0  0  0  0  0  0  0  0  0  0  0  0
  -12.7509    2.8681    0.0000 C   0  0  0  0  0  0  0  0  0  0  0  0
   -1.8888    2.3568    0.0000 C   0  0  0  0  0  0  0  0  0  0  0  0
  -13.4697    7.1684    0.0000 C   0  0  0  0  0  0  0  0  0  0  0  0
    4.8736   -0.1733    0.0000 C   0  0  0  0  0  0  0  0  0  0  0  0
   -5.2829    0.4052    0.0000 C   0  0  0  0  0  0  0  0  0  0  0  0
    4.7003   -4.1214    0.0000 C   0  0  0  0  0  0  0  0  0  0  0  0
    3.0959   -3.8821    0.0000 C   0  0  0  0  0  0  0  0  0  0  0  0
  -17.7222   -8.0374    0.0000 C   0  0  0  0  0  0  0  0  0  0  0  0
  -12.8298    2.1988    0.0000 C   0  0  0  0  0  0  0  0  0  0  0  0
   16.7065   -0.8405    0.0000 C   0  0  0  0  0  0  0  0  0  0  0  0
    6.6747   -2.2059    0.0000 C   0  0  0  0  0  0  0  0  0  0  0  0
  -13.1329   -6.5597    0.0000 C   0  0  0  0  0  0  0  0  0  0  0  0
   14.1188   -3.8273    0.0000 C   0  0  0  0  0  0  0  0  0  0  0  0
  -14.3739   -0.6494    0.0000 C   0  0  0  0  0  0  0  0  0  0  0  0
   10.1677   -3.9029    0.0000 C   0  0  0  0  0  0  0  0  0  0  0  0
  -11.0415   -3.6416    0.0000 C   0  0  0  0  0  0  0  0  0  0  0  0
   -0.6347   -2.9014    0.0000 C   0  0  0  0  0  0  0  0  0  0  0  0
   -6.9832   -4.2929    0.0000 C   0  0  0  0  0  0  0  0  0  0  0  0
   -0.0858   -5.5755    0.0000 C   0  0  0  0  0  0  0  0  0  0  0  0
   -5.8580    3.9944    0.0000 C   0  0  0  0  0  0  0  0  0  0  0  0
    8.1646   -3.1265    0.0000 C   0  0  0  0  0  0  0  0  0  0  0  0
   -8.7125   -6.4051    0.0000 C   0  0  0  0  0  0  0  0  0  0  0  0
   21.6200    1.8338    0.0000 C   0  0  0  0  0  0  0  0  0  0  0  0
  -16.0358    4.0449    0.0000 C   0  0  0  0  0  0  0  0  0  0  0  0
    2.1317    6.6001    0.0000 C   0  0  0  0  0  0  0  0  0  0  0  0
   -9.4220   -2.9219    0.0000 C   0  0  0  0  0  0  0  0  0  0  0  0
   -6.9573    5.3574    0.0000 C   0  0  0  0  0  0  0  0  0  0  0  0
  -21.3762   -5.6618    0.0000 C   0  0  0  0  0  0  0  0  0  0  0  0
    7.4487   -6.4480    0.0000 C   0  0  0  0  0  0  0  0  0  0  0  0
  -13.8762  -10.8216    0.0000 C   0  0  0  0  0  0  0  0  0  0  0  0
   19.1390   -4.4009    0.0000 C   0  0  0  0  0  0  0  0  0  0  0  0
   13.1005   -8.0174    0.0000 C   0  0  0  0  0  0  0  0  0  0  0  0
  -16.5032   -2.4366    0.0000 C   0  0  0  0  0  0  0  0  0  0  0  0
  -13.0237   10.6140    0.0000 C   0  0  0  0  0  0  0  0  0  0  0  0
  -11.7669    5.9066    0.0000 C   0  0  0  0  0  0  0  0  0  0  0  0
    7.8993    2.4485    0.0000 C   0  0  0  0  0  0  0  0  0  0  0  0
   -4.8126    5.0919    0.0000 C   0  0  0  0  0  0  0  0  0  0  0  0
    6.3725   -5.9499    0.0000 C   0  0  0  0  0  0  0  0  0  0  0  0
    0.7916    3.3479    0.0000 C   0  0  0  0  0  0  0  0  0  0  0  0
  -10.8547    0.1014    0.0000 C   0  0  0  0  0  0  0  0  0  0  0  0
   -9.9822    3.5622    0.0000 C   0  0  0  0  0  0  0  0  0  0  0  0
  -11.8967    7.2819    0.0000 C   0  0  0  0  0  0  0  0  0  0  0  0
  -12.7748    3.8880    0.0000 C   0  0  0  0  0  0  0  0  0  0  0  0
    4.5858    1.2683    0.0000 C   0  0  0  0  0  0  0  0  0  0  0  0
   -3.2925    1.9198    0.0000 C   0  0  0  0  0  0  0  0  0  0  0  0
    2.4814   -5.2176    0.0000 C   0  0  0  0  0  0  0  0  0  0  0  0
   -6.4867    1.4797    0.0000 C   0  0  0  0  0  0  0  0  0  0  0  0
    5.5791   -2.9428    0.0000 C   0  0  0  0  0  0  0  0  0  0  0  0
   19.1833    0.9500    0.0000 C   0  0  0  0  0  0  0  0  0  0  0  0
    1.6149    3.2945    0.0000 C   0  0  0  0  0  0  0  0  0  0  0  0
  -10.1441    0.5205    0.0000 C   0  0  0  0  0  0  0  0  0  0  0  0
  -10.1538    4.3692    0.0000 C   0  0  0  0  0  0  0  0  0  0  0  0
  -13.4893    3.4755    0.0000 C   0  0  0  0  0  0  0  0  0  0  0  0
  -12.7217    7.2819    0.0000 C   0  0  0  0  0  0  0  0  0  0  0  0
   -2.7020    2.4959    0.0000 C   0  0  0  0  0  0  0  0  0  0  0  0
    5.0970    0.6208    0.0000 C   0  0  0  0  0  0  0  0  0  0  0  0
   -5.7099    1.2019    0.0000 C   0  0  0  0  0  0  0  0  0  0  0  0
    5.4400   -3.7559    0.0000 C   0  0  0  0  0  0  0  0  0  0  0  0
    2.4484   -4.3933    0.0000 C   0  0  0  0  0  0  0  0  0  0  0  0
  -18.5513   -7.7575    0.0000 C   0  0  0  0  0  0  0  0  0  0  0  0
   16.9926   -1.6143    0.0000 C   0  0  0  0  0  0  0  0  0  0  0  0
    6.6213   -3.0292    0.0000 C   0  0  0  0  0  0  0  0  0  0  0  0
  -13.4666   -7.3281    0.0000 C   0  0  0  0  0  0  0  0  0  0  0  0
   13.7352   -4.5577    0.0000 C   0  0  0  0  0  0  0  0  0  0  0  0
  -13.4666   -1.0321    0.0000 C   0  0  0  0  0  0  0  0  0  0  0  0
    9.3682   -4.1066    0.0000 C   0  0  0  0  0  0  0  0  0  0  0  0
  -13.5072    2.8506    0.0000 C   0  0  0  0  0  0  0  0  0  0  0  0
  -10.4065   -4.1801    0.0000 C   0  0  0  0  0  0  0  0  0  0  0  0
    1.2854    4.5881    0.0000 C   0  0  0  0  0  0  0  0  0  0  0  0
   -9.8544   -0.7824    0.0000 C   0  0  0  0  0  0  0  0  0  0  0  0
   -8.8262    4.2297    0.0000 C   0  0  0  0  0  0  0  0  0  0  0  0
  -12.3092    8.5515    0.0000 C   0  0  0  0  0  0  0  0  0  0  0  0
  -13.6843    4.8637    0.0000 C   0  0  0  0  0  0  0  0  0  0  0  0
    5.8378    1.7312    0.0000 C   0  0  0  0  0  0  0  0  0  0  0  0
   -3.8838    3.1166    0.0000 C   0  0  0  0  0  0  0  0  0  0  0  0
    1.1963   -4.8562    0.0000 C   0  0  0  0  0  0  0  0  0  0  0  0
   -5.6707    2.5362    0.0000 C   0  0  0  0  0  0  0  0  0  0  0  0
    6.7609   -3.5634    0.0000 C   0  0  0  0  0  0  0  0  0  0  0  0
   -0.9129   -4.5278    0.0000 C   0  0  0  0  0  0  0  0  0  0  0  0
   -7.4931   -5.8621    0.0000 C   0  0  0  0  0  0  0  0  0  0  0  0
   -4.5769    4.3694    0.0000 C   0  0  0  0  0  0  0  0  0  0  0  0
    8.7559   -4.3233    0.0000 C   0  0  0  0  0  0  0  0  0  0  0  0
   22.6470    0.9810    0.0000 C   0  0  0  0  0  0  0  0  0  0  0  0
  -15.7582    5.3506    0.0000 C   0  0  0  0  0  0  0  0  0  0  0  0
  -19.2292   -8.2277    0.0000 C   0  0  0  0  0  0  0  0  0  0  0  0
   19.3870    0.1505    0.0000 C   0  0  0  0  0  0  0  0  0  0  0  0
    5.9239   -3.4699    0.0000 C   0  0  0  0  0  0  0  0  0  0  0  0
  -14.2736   -7.4996    0.0000 C   0  0  0  0  0  0  0  0  0  0  0  0
   16.5347   -2.3006    0.0000 C   0  0  0  0  0  0  0  0  0  0  0  0
   12.9188   -4.6767    0.0000 C   0  0  0  0  0  0  0  0  0  0  0  0
  -13.0541   -1.7466    0.0000 C   0  0  0  0  0  0  0  0  0  0  0  0
    8.7335   -3.5795    0.0000 C   0  0  0  0  0  0  0  0  0  0  0  0
  -10.8190   -4.8946    0.0000 C   0  0  0  0  0  0  0  0  0  0  0  0
  -14.1203    2.2986    0.0000 C   0  0  0  0  0  0  0  0  0  0  0  0
  -19.8858   -7.7282    0.0000 C   0  0  0  0  0  0  0  0  0  0  0  0
   20.2102    0.0972    0.0000 C   0  0  0  0  0  0  0  0  0  0  0  0
    6.1276   -4.2694    0.0000 C   0  0  0  0  0  0  0  0  0  0  0  0
  -14.3598   -8.3201    0.0000 C   0  0  0  0  0  0  0  0  0  0  0  0
   17.0459   -2.9481    0.0000 C   0  0  0  0  0  0  0  0  0  0  0  0
   12.7797   -5.4899    0.0000 C   0  0  0  0  0  0  0  0  0  0  0  0
  -13.6061   -2.3597    0.0000 C   0  0  0  0  0  0  0  0  0  0  0  0
    8.0361   -4.0202    0.0000 C   0  0  0  0  0  0  0  0  0  0  0  0
  -10.2669   -5.5077    0.0000 C   0  0  0  0  0  0  0  0  0  0  0  0
  -14.8348    2.7111    0.0000 C   0  0  0  0  0  0  0  0  0  0  0  0
    1.4454    7.0579    0.0000 C   0  0  0  0  0  0  0  0  0  0  0  0
   -8.5970   -2.9142    0.0000 C   0  0  0  0  0  0  0  0  0  0  0  0
   -6.4053    4.7443    0.0000 C   0  0  0  0  0  0  0  0  0  0  0  0
  -21.0242   -4.9156    0.0000 C   0  0  0  0  0  0  0  0  0  0  0  0
    8.2730   -6.4150    0.0000 C   0  0  0  0  0  0  0  0  0  0  0  0
  -13.0915  -11.0765    0.0000 C   0  0  0  0  0  0  0  0  0  0  0  0
   19.8786   -4.0355    0.0000 C   0  0  0  0  0  0  0  0  0  0  0  0
   13.8670   -8.3226    0.0000 C   0  0  0  0  0  0  0  0  0  0  0  0
  -16.5032   -3.2616    0.0000 C   0  0  0  0  0  0  0  0  0  0  0  0
   -1.5476   -4.0007    0.0000 C   0  0  0  0  0  0  0  0  0  0  0  0
   -6.6861   -5.6906    0.0000 C   0  0  0  0  0  0  0  0  0  0  0  0
   -0.1391   -4.2417    0.0000 C   0  0  0  0  0  0  0  0  0  0  0  0
   -8.0451   -5.2490    0.0000 C   0  0  0  0  0  0  0  0  0  0  0  0
   -4.6011    3.5448    0.0000 C   0  0  0  0  0  0  0  0  0  0  0  0
    7.9395   -4.4422    0.0000 C   0  0  0  0  0  0  0  0  0  0  0  0
   21.9495    0.5402    0.0000 C   0  0  0  0  0  0  0  0  0  0  0  0
  -15.0438    4.9381    0.0000 C   0  0  0  0  0  0  0  0  0  0  0  0
  -12.3092   11.0265    0.0000 C   0  0  0  0  0  0  0  0  0  0  0  0
  -11.2428    5.2695    0.0000 C   0  0  0  0  0  0  0  0  0  0  0  0
    7.7804    3.2649    0.0000 C   0  0  0  0  0  0  0  0  0  0  0  0
   -5.6121    4.8882    0.0000 C   0  0  0  0  0  0  0  0  0  0  0  0
    6.6586   -6.7237    0.0000 C   0  0  0  0  0  0  0  0  0  0  0  0
   -3.8506    4.7608    0.0000 C   0  0  0  0  0  0  0  0  0  0  0  0
    9.2671   -4.9708    0.0000 C   0  0  0  0  0  0  0  0  0  0  0  0
   23.3773    0.5974    0.0000 C   0  0  0  0  0  0  0  0  0  0  0  0
  -15.7582    6.1756    0.0000 C   0  0  0  0  0  0  0  0  0  0  0  0
  -19.6137   -6.9494    0.0000 C   0  0  0  0  0  0  0  0  0  0  0  0
    6.9508   -4.3228    0.0000 C   0  0  0  0  0  0  0  0  0  0  0  0
  -13.6061   -8.6556    0.0000 C   0  0  0  0  0  0  0  0  0  0  0  0
   17.8197   -2.6620    0.0000 C   0  0  0  0  0  0  0  0  0  0  0  0
   13.5101   -5.8735    0.0000 C   0  0  0  0  0  0  0  0  0  0  0  0
  -14.3598   -2.0241    0.0000 C   0  0  0  0  0  0  0  0  0  0  0  0
    8.2398   -4.8197    0.0000 C   0  0  0  0  0  0  0  0  0  0  0  0
   -9.5133   -5.1721    0.0000 C   0  0  0  0  0  0  0  0  0  0  0  0
   20.5154    0.8637    0.0000 C   0  0  0  0  0  0  0  0  0  0  0  0
  -14.6633    3.5181    0.0000 C   0  0  0  0  0  0  0  0  0  0  0  0
   -3.1727    3.5028    0.0000 C   0  0  0  0  0  0  0  0  0  0  0  0
    8.1456   -5.8562    0.0000 C   0  0  0  0  0  0  0  0  0  0  0  0
   22.7129   -0.6676    0.0000 C   0  0  0  0  0  0  0  0  0  0  0  0
  -14.3293    6.1756    0.0000 C   0  0  0  0  0  0  0  0  0  0  0  0
    0.6524    5.8692    0.0000 C   0  0  0  0  0  0  0  0  0  0  0  0
   -8.6103   -1.4853    0.0000 C   0  0  0  0  0  0  0  0  0  0  0  0
   -7.4672    3.7881    0.0000 C   0  0  0  0  0  0  0  0  0  0  0  0
  -19.7319   -5.5254    0.0000 C   0  0  0  0  0  0  0  0  0  0  0  0
    8.2159   -4.9872    0.0000 C   0  0  0  0  0  0  0  0  0  0  0  0
  -12.6500   -9.7175    0.0000 C   0  0  0  0  0  0  0  0  0  0  0  0
   19.2457   -2.7544    0.0000 C   0  0  0  0  0  0  0  0  0  0  0  0
   14.3956   -6.9950    0.0000 C   0  0  0  0  0  0  0  0  0  0  0  0
  -15.0743   -3.2616    0.0000 C   0  0  0  0  0  0  0  0  0  0  0  0
  -11.5947    9.7890    0.0000 C   0  0  0  0  0  0  0  0  0  0  0  0
  -12.3464    4.3618    0.0000 C   0  0  0  0  0  0  0  0  0  0  0  0
    6.3664    3.0588    0.0000 C   0  0  0  0  0  0  0  0  0  0  0  0
   -5.2594    3.5035    0.0000 C   0  0  0  0  0  0  0  0  0  0  0  0
    7.9988   -6.2282    0.0000 C   0  0  0  0  0  0  0  0  0  0  0  0
    1.4988    7.8812    0.0000 N   0  0  0  0  0  0  0  0  0  0  0  0
   -7.7071   -2.8531    0.0000 N   0  0  0  0  0  0  0  0  0  0  0  0
   -5.7056    5.2708    0.0000 N   0  0  0  0  0  0  0  0  0  0  0  0
  -21.4395   -4.1359    0.0000 N   0  0  0  0  0  0  0  0  0  0  0  0
    8.7138   -7.1124    0.0000 N   0  0  0  0  0  0  0  0  0  0  0  0
  -12.7770  -11.9043    0.0000 N   0  0  0  0  0  0  0  0  0  0  0  0
   20.5649   -4.4934    0.0000 N   0  0  0  0  0  0  0  0  0  0  0  0
   13.9860   -9.1390    0.0000 N   0  0  0  0  0  0  0  0  0  0  0  0
  -17.3747   -3.4111    0.0000 N   0  0  0  0  0  0  0  0  0  0  0  0
   -2.3214   -4.2868    0.0000 N   0  0  0  0  0  0  0  0  0  0  0  0
   -6.0324   -6.2842    0.0000 N   0  0  0  0  0  0  0  0  0  0  0  0
   -2.4707    3.0696    0.0000 N   0  0  0  0  0  0  0  0  0  0  0  0
    7.8404   -6.6227    0.0000 N   0  0  0  0  0  0  0  0  0  0  0  0
   22.7459   -1.4919    0.0000 N   0  0  0  0  0  0  0  0  0  0  0  0
  -14.7253    7.0797    0.0000 N   0  0  0  0  0  0  0  0  0  0  0  0
   -1.4085   -3.1875    0.0000 N   0  0  0  0  0  0  0  0  0  0  0  0
   -6.4312   -4.9060    0.0000 N   0  0  0  0  0  0  0  0  0  0  0  0
    0.0000   -3.4285    0.0000 N   0  0  0  0  0  0  0  0  0  0  0  0
   -7.7902   -4.4644    0.0000 N   0  0  0  0  0  0  0  0  0  0  0  0
   -0.8799   -5.3521    0.0000 N   0  0  0  0  0  0  0  0  0  0  0  0
   -7.9056   -6.5766    0.0000 N   0  0  0  0  0  0  0  0  0  0  0  0
   -5.3537    4.6473    0.0000 N   0  0  0  0  0  0  0  0  0  0  0  0
    8.8950   -3.5101    0.0000 N   0  0  0  0  0  0  0  0  0  0  0  0
   22.4433    1.7804    0.0000 N   0  0  0  0  0  0  0  0  0  0  0  0
  -16.3713    4.7986    0.0000 N   0  0  0  0  0  0  0  0  0  0  0  0
    0.7058    6.6925    0.0000 N   0  0  0  0  0  0  0  0  0  0  0  0
   -8.1912   -2.1959    0.0000 N   0  0  0  0  0  0  0  0  0  0  0  0
   -6.6602    3.9596    0.0000 N   0  0  0  0  0  0  0  0  0  0  0  0
  -20.2020   -4.8474    0.0000 N   0  0  0  0  0  0  0  0  0  0  0  0
    8.6566   -5.6846    0.0000 N   0  0  0  0  0  0  0  0  0  0  0  0
  -12.4785  -10.5245    0.0000 N   0  0  0  0  0  0  0  0  0  0  0  0
   19.9320   -3.2122    0.0000 N   0  0  0  0  0  0  0  0  0  0  0  0
   14.5145   -7.8114    0.0000 N   0  0  0  0  0  0  0  0  0  0  0  0
  -15.7887   -3.6741    0.0000 N   0  0  0  0  0  0  0  0  0  0  0  0
   -3.8990    3.1115    0.0000 N   0  0  0  0  0  0  0  0  0  0  0  0
    7.6344   -5.2087    0.0000 N   0  0  0  0  0  0  0  0  0  0  0  0
   21.9825   -0.2840    0.0000 N   0  0  0  0  0  0  0  0  0  0  0  0
  -14.3293    5.3506    0.0000 N   0  0  0  0  0  0  0  0  0  0  0  0
   -3.1485    4.3275    0.0000 N   0  0  0  0  0  0  0  0  0  0  0  0
    8.9620   -5.7373    0.0000 N   0  0  0  0  0  0  0  0  0  0  0  0
   23.4103   -0.2269    0.0000 N   0  0  0  0  0  0  0  0  0  0  0  0
  -15.0438    6.5881    0.0000 N   0  0  0  0  0  0  0  0  0  0  0  0
  -11.5947   10.6140    0.0000 N   0  0  0  0  0  0  0  0  0  0  0  0
  -11.5326    4.4970    0.0000 N   0  0  0  0  0  0  0  0  0  0  0  0
    7.0139    3.5700    0.0000 N   0  0  0  0  0  0  0  0  0  0  0  0
   -5.8355    4.0940    0.0000 N   0  0  0  0  0  0  0  0  0  0  0  0
    7.4717   -6.8628    0.0000 N   0  0  0  0  0  0  0  0  0  0  0  0
    1.3387    5.4114    0.0000 N   0  0  0  0  0  0  0  0  0  0  0  0
   -9.4353   -1.4930    0.0000 N   0  0  0  0  0  0  0  0  0  0  0  0
   -8.0192    4.4012    0.0000 N   0  0  0  0  0  0  0  0  0  0  0  0
  -12.3092    9.3765    0.0000 N   0  0  0  0  0  0  0  0  0  0  0  0
  -12.8705    4.9989    0.0000 N   0  0  0  0  0  0  0  0  0  0  0  0
    6.4853    2.2424    0.0000 N   0  0  0  0  0  0  0  0  0  0  0  0
   -4.4599    3.7071    0.0000 N   0  0  0  0  0  0  0  0  0  0  0  0
  -20.0839   -6.2715    0.0000 N   0  0  0  0  0  0  0  0  0  0  0  0
    7.3916   -5.0202    0.0000 N   0  0  0  0  0  0  0  0  0  0  0  0
  -13.4346   -9.4626    0.0000 N   0  0  0  0  0  0  0  0  0  0  0  0
   18.5060   -3.1198    0.0000 N   0  0  0  0  0  0  0  0  0  0  0  0
   13.6291   -6.6898    0.0000 N   0  0  0  0  0  0  0  0  0  0  0  0
  -15.0743   -2.4366    0.0000 N   0  0  0  0  0  0  0  0  0  0  0  0
    7.7127   -5.4544    0.0000 N   0  0  0  0  0  0  0  0  0  0  0  0
    0.3720   -4.8892    0.0000 N   0  0  0  0  0  0  0  0  0  0  0  0
   -5.3928    3.3130    0.0000 N   0  0  0  0  0  0  0  0  0  0  0  0
    7.5741   -3.7026    0.0000 N   0  0  0  0  0  0  0  0  0  0  0  0
   -8.7988   -5.5846    0.0000 N   0  0  0  0  0  0  0  0  0  0  0  0
   21.3149    1.0673    0.0000 N   0  0  0  0  0  0  0  0  0  0  0  0
  -15.2153    4.1312    0.0000 N   0  0  0  0  0  0  0  0  0  0  0  0
   18.2979    2.0715    0.0000 O   0  0  0  0  0  0  0  0  0  0  0  0
  -19.2339   -9.1098    0.0000 O   0  0  0  0  0  0  0  0  0  0  0  0
  -12.2904   11.9043    0.0000 O   0  0  0  0  0  0  0  0  0  0  0  0
  -10.4262    4.8978    0.0000 O   0  0  0  0  0  0  0  0  0  0  0  0
    8.4279    3.7761    0.0000 O   0  0  0  0  0  0  0  0  0  0  0  0
   -6.1882    5.4787    0.0000 O   0  0  0  0  0  0  0  0  0  0  0  0
    6.1315   -7.3584    0.0000 O   0  0  0  0  0  0  0  0  0  0  0  0
   -3.8264    5.5854    0.0000 O   0  0  0  0  0  0  0  0  0  0  0  0
   10.0835   -4.8518    0.0000 O   0  0  0  0  0  0  0  0  0  0  0  0
   24.0748    1.0381    0.0000 O   0  0  0  0  0  0  0  0  0  0  0  0
  -16.6160    6.4326    0.0000 O   0  0  0  0  0  0  0  0  0  0  0  0
   -0.0871    5.5038    0.0000 O   0  0  0  0  0  0  0  0  0  0  0  0
   -7.7594   -1.2220    0.0000 O   0  0  0  0  0  0  0  0  0  0  0  0
   -7.5060    2.9755    0.0000 O   0  0  0  0  0  0  0  0  0  0  0  0
  -18.9729   -5.1056    0.0000 O   0  0  0  0  0  0  0  0  0  0  0  0
    8.5995   -4.2568    0.0000 O   0  0  0  0  0  0  0  0  0  0  0  0
  -11.7723   -9.6470    0.0000 O   0  0  0  0  0  0  0  0  0  0  0  0
   19.2990   -1.9311    0.0000 O   0  0  0  0  0  0  0  0  0  0  0  0
   15.0431   -6.4838    0.0000 O   0  0  0  0  0  0  0  0  0  0  0  0
  -15.2779   -4.1309    0.0000 O   0  0  0  0  0  0  0  0  0  0  0  0
  -10.7075    9.8317    0.0000 O   0  0  0  0  0  0  0  0  0  0  0  0
  -12.1901    3.5485    0.0000 O   0  0  0  0  0  0  0  0  0  0  0  0
    5.5999    3.3640    0.0000 O   0  0  0  0  0  0  0  0  0  0  0  0
   -5.4827    2.7093    0.0000 O   0  0  0  0  0  0  0  0  0  0  0  0
    8.8120   -6.3673    0.0000 O   0  0  0  0  0  0  0  0  0  0  0  0
   -0.4094    3.6655    0.0000 O   0  0  0  0  0  0  0  0  0  0  0  0
  -11.3562    0.7962    0.0000 O   0  0  0  0  0  0  0  0  0  0  0  0
    4.0181    2.3734    0.0000 O   0  0  0  0  0  0  0  0  0  0  0  0
   -9.3525    7.9018    0.0000 O   0  0  0  0  0  0  0  0  0  0  0  0
  -14.1025    4.9640    0.0000 O   0  0  0  0  0  0  0  0  0  0  0  0
   -4.3323    1.2397    0.0000 O   0  0  0  0  0  0  0  0  0  0  0  0
   -8.3592    1.2284    0.0000 O   0  0  0  0  0  0  0  0  0  0  0  0
    6.0206   -1.7814    0.0000 O   0  0  0  0  0  0  0  0  0  0  0  0
    4.2727   -6.0497    0.0000 O   0  0  0  0  0  0  0  0  0  0  0  0
  -10.0757    1.8241    0.0000 O   0  0  0  0  0  0  0  0  0  0  0  0
    3.9987   -3.0285    0.0000 O   0  0  0  0  0  0  0  0  0  0  0  0
  -16.1142   -6.5755    0.0000 O   0  0  0  0  0  0  0  0  0  0  0  0
   18.1858    0.4682    0.0000 O   0  0  0  0  0  0  0  0  0  0  0  0
   14.5964   -2.6803    0.0000 O   0  0  0  0  0  0  0  0  0  0  0  0
   11.3396   -3.4903    0.0000 O   0  0  0  0  0  0  0  0  0  0  0  0
    8.5585   -1.6121    0.0000 O   0  0  0  0  0  0  0  0  0  0  0  0
  -11.4451   -2.0115    0.0000 O   0  0  0  0  0  0  0  0  0  0  0  0
  -12.3043   -5.9203    0.0000 O   0  0  0  0  0  0  0  0  0  0  0  0
  -14.2750    0.0497    0.0000 O   0  0  0  0  0  0  0  0  0  0  0  0
  -23.1986   -7.9742    0.0000 O   0  0  0  0  0  0  0  0  0  0  0  0
   22.7404   -1.2316    0.0000 O   0  0  0  0  0  0  0  0  0  0  0  0
    5.6456   -7.0864    0.0000 O   0  0  0  0  0  0  0  0  0  0  0  0
  -16.7211  -11.0755    0.0000 O   0  0  0  0  0  0  0  0  0  0  0  0
   17.7514   -5.7175    0.0000 O   0  0  0  0  0  0  0  0  0  0  0  0
   11.1937   -7.8672    0.0000 O   0  0  0  0  0  0  0  0  0  0  0  0
  -15.6492   -5.0097    0.0000 O   0  0  0  0  0  0  0  0  0  0  0  0
    5.2081   -4.4324    0.0000 O   0  0  0  0  0  0  0  0  0  0  0  0
   -8.9867   -8.9079    0.0000 O   0  0  0  0  0  0  0  0  0  0  0  0
  -18.2223    2.3826    0.0000 O   0  0  0  0  0  0  0  0  0  0  0  0
  -20.6670   -8.2419    0.0000 O   0  0  0  0  0  0  0  0  0  0  0  0
   20.6510   -0.6001    0.0000 O   0  0  0  0  0  0  0  0  0  0  0  0
    5.6005   -4.9041    0.0000 O   0  0  0  0  0  0  0  0  0  0  0  0
  -15.0356   -8.9749    0.0000 O   0  0  0  0  0  0  0  0  0  0  0  0
   16.8226   -3.7423    0.0000 O   0  0  0  0  0  0  0  0  0  0  0  0
   12.0401   -5.8553    0.0000 O   0  0  0  0  0  0  0  0  0  0  0  0
  -13.6281   -3.2467    0.0000 O   0  0  0  0  0  0  0  0  0  0  0  0
    7.2697   -3.7151    0.0000 O   0  0  0  0  0  0  0  0  0  0  0  0
  -10.1096   -6.4333    0.0000 O   0  0  0  0  0  0  0  0  0  0  0  0
  -15.7061    2.3735    0.0000 O   0  0  0  0  0  0  0  0  0  0  0  0
    2.8800    2.6301    0.0000 O   0  0  0  0  0  0  0  0  0  0  0  0
   -9.5803    6.3891    0.0000 O   0  0  0  0  0  0  0  0  0  0  0  0
  -12.3771    1.9172    0.0000 O   0  0  0  0  0  0  0  0  0  0  0  0
   -1.3617    2.9915    0.0000 O   0  0  0  0  0  0  0  0  0  0  0  0
  -12.9966    6.3523    0.0000 O   0  0  0  0  0  0  0  0  0  0  0  0
   -8.3047    0.4640    0.0000 O   0  0  0  0  0  0  0  0  0  0  0  0
    5.4497   -0.7639    0.0000 O   0  0  0  0  0  0  0  0  0  0  0  0
   -4.4686    0.0810    0.0000 O   0  0  0  0  0  0  0  0  0  0  0  0
    4.6470   -4.9446    0.0000 O   0  0  0  0  0  0  0  0  0  0  0  0
    3.8624   -4.1872    0.0000 O   0  0  0  0  0  0  0  0  0  0  0  0
  -16.9788   -7.5501    0.0000 O   0  0  0  0  0  0  0  0  0  0  0  0
  -11.8533    1.8426    0.0000 O   0  0  0  0  0  0  0  0  0  0  0  0
   17.2335   -0.2058    0.0000 O   0  0  0  0  0  0  0  0  0  0  0  0
    7.4143   -1.8405    0.0000 O   0  0  0  0  0  0  0  0  0  0  0  0
   14.9432   -3.7943    0.0000 O   0  0  0  0  0  0  0  0  0  0  0  0
   10.7438   -4.4934    0.0000 O   0  0  0  0  0  0  0  0  0  0  0  0
  -12.3619   -6.9072    0.0000 O   0  0  0  0  0  0  0  0  0  0  0  0
  -15.0849   -0.0304    0.0000 O   0  0  0  0  0  0  0  0  0  0  0  0
  -11.8623   -3.6455    0.0000 O   0  0  0  0  0  0  0  0  0  0  0  0
    1.9200    4.0610    0.0000 O   0  0  0  0  0  0  0  0  0  0  0  0
   -9.5259   -0.0257    0.0000 O   0  0  0  0  0  0  0  0  0  0  0  0
   -9.4393    4.7817    0.0000 O   0  0  0  0  0  0  0  0  0  0  0  0
  -14.1024    4.0275    0.0000 O   0  0  0  0  0  0  0  0  0  0  0  0
  -12.9767    8.0665    0.0000 O   0  0  0  0  0  0  0  0  0  0  0  0
   -3.0674    3.2356    0.0000 O   0  0  0  0  0  0  0  0  0  0  0  0
    5.8708    0.9069    0.0000 O   0  0  0  0  0  0  0  0  0  0  0  0
    1.6542   -4.1699    0.0000 O   0  0  0  0  0  0  0  0  0  0  0  0
   -5.2056    1.8548    0.0000 O   0  0  0  0  0  0  0  0  0  0  0  0
    6.1704   -4.1395    0.0000 O   0  0  0  0  0  0  0  0  0  0  0  0
   19.8807    1.3907    0.0000 O   0  0  0  0  0  0  0  0  0  0  0  0
  -18.7889   -6.9675    0.0000 O   0  0  0  0  0  0  0  0  0  0  0  0
   17.7867   -1.8376    0.0000 O   0  0  0  0  0  0  0  0  0  0  0  0
    7.2560   -3.5563    0.0000 O   0  0  0  0  0  0  0  0  0  0  0  0
  -13.0541   -8.0425    0.0000 O   0  0  0  0  0  0  0  0  0  0  0  0
   14.1006   -5.2974    0.0000 O   0  0  0  0  0  0  0  0  0  0  0  0
  -14.2736   -1.2037    0.0000 O   0  0  0  0  0  0  0  0  0  0  0  0
    9.0631   -4.8731    0.0000 O   0  0  0  0  0  0  0  0  0  0  0  0
   -9.5995   -4.3516    0.0000 O   0  0  0  0  0  0  0  0  0  0  0  0
  -13.8428    3.6043    0.0000 O   0  0  0  0  0  0  0  0  0  0  0  0
    0.2645    2.7132    0.0000 O   0  0  0  0  0  0  0  0  0  0  0  0
  -11.7498    0.2230    0.0000 O   0  0  0  0  0  0  0  0  0  0  0  0
  -10.9593    7.5975    0.0000 O   0  0  0  0  0  0  0  0  0  0  0  0
    3.7614    1.2353    0.0000 O   0  0  0  0  0  0  0  0  0  0  0  0
  -12.4963    4.7923    0.0000 O   0  0  0  0  0  0  0  0  0  0  0  0
   -3.1736    1.1034    0.0000 O   0  0  0  0  0  0  0  0  0  0  0  0
  -10.2037    2.6894    0.0000 O   0  0  0  0  0  0  0  0  0  0  0  0
    3.1676   -5.6755    0.0000 O   0  0  0  0  0  0  0  0  0  0  0  0
   -6.7343    0.6469    0.0000 O   0  0  0  0  0  0  0  0  0  0  0  0
    5.0030   -2.3522    0.0000 O   0  0  0  0  0  0  0  0  0  0  0  0
   18.8599   -0.4840    0.0000 O   0  0  0  0  0  0  0  0  0  0  0  0
    5.1574   -3.1648    0.0000 O   0  0  0  0  0  0  0  0  0  0  0  0
  -15.1650   -7.3220    0.0000 O   0  0  0  0  0  0  0  0  0  0  0  0
   15.7104   -2.3335    0.0000 O   0  0  0  0  0  0  0  0  0  0  0  0
   12.3427   -4.0861    0.0000 O   0  0  0  0  0  0  0  0  0  0  0  0
  -12.3315   -2.1467    0.0000 O   0  0  0  0  0  0  0  0  0  0  0  0
    8.7869   -2.7562    0.0000 O   0  0  0  0  0  0  0  0  0  0  0  0
  -11.2458   -5.6685    0.0000 O   0  0  0  0  0  0  0  0  0  0  0  0
  -14.7653    1.6491    0.0000 O   0  0  0  0  0  0  0  0  0  0  0  0
   -0.5486    2.8524    0.0000 P   0  0  0  0  0  0  0  0  0  0  0  0
  -12.2200    1.0168    0.0000 P   0  0  0  0  0  0  0  0  0  0  0  0
    3.3207    1.9327    0.0000 P   0  0  0  0  0  0  0  0  0  0  0  0
  -10.0006    7.2856    0.0000 P   0  0  0  0  0  0  0  0  0  0  0  0
  -13.2864    5.5136    0.0000 P   0  0  0  0  0  0  0  0  0  0  0  0
   -3.8211    0.5922    0.0000 P   0  0  0  0  0  0  0  0  0  0  0  0
   -7.5625    0.8917    0.0000 P   0  0  0  0  0  0  0  0  0  0  0  0
    5.2264   -1.5580    0.0000 P   0  0  0  0  0  0  0  0  0  0  0  0
    3.9073   -5.3101    0.0000 P   0  0  0  0  0  0  0  0  0  0  0  0
  -10.8935    2.1048    0.0000 P   0  0  0  0  0  0  0  0  0  0  0  0
    4.5099   -3.6760    0.0000 P   0  0  0  0  0  0  0  0  0  0  0  0
  -16.0796   -7.4381    0.0000 P   0  0  0  0  0  0  0  0  0  0  0  0
   18.0467   -0.3449    0.0000 P   0  0  0  0  0  0  0  0  0  0  0  0
   15.3268   -3.0639    0.0000 P   0  0  0  0  0  0  0  0  0  0  0  0
   11.5433   -4.2898    0.0000 P   0  0  0  0  0  0  0  0  0  0  0  0
    8.1006   -2.2984    0.0000 P   0  0  0  0  0  0  0  0  0  0  0  0
  -11.8069   -2.7949    0.0000 P   0  0  0  0  0  0  0  0  0  0  0  0
  -11.6384   -6.4531    0.0000 P   0  0  0  0  0  0  0  0  0  0  0  0
  -14.7129    0.7655    0.0000 P   0  0  0  0  0  0  0  0  0  0  0  0
   -0.6877    2.0392    0.0000 S   0  0  0  0  0  0  0  0  0  0  0  0
  -13.0652    1.1245    0.0000 S   0  0  0  0  0  0  0  0  0  0  0  0
    2.6233    1.4920    0.0000 S   0  0  0  0  0  0  0  0  0  0  0  0
  -10.6883    6.8619    0.0000 S   0  0  0  0  0  0  0  0  0  0  0  0
  -13.6143    6.4099    0.0000 S   0  0  0  0  0  0  0  0  0  0  0  0
   -3.3099   -0.0552    0.0000 S   0  0  0  0  0  0  0  0  0  0  0  0
   -7.8632    1.6814    0.0000 S   0  0  0  0  0  0  0  0  0  0  0  0
    4.4322   -1.3347    0.0000 S   0  0  0  0  0  0  0  0  0  0  0  0
    3.5419   -4.5704    0.0000 S   0  0  0  0  0  0  0  0  0  0  0  0
  -10.9132    2.9285    0.0000 S   0  0  0  0  0  0  0  0  0  0  0  0
    5.0211   -4.3235    0.0000 S   0  0  0  0  0  0  0  0  0  0  0  0
  -16.3747   -8.2613    0.0000 S   0  0  0  0  0  0  0  0  0  0  0  0
   17.9076   -1.1581    0.0000 S   0  0  0  0  0  0  0  0  0  0  0  0
   16.0572   -3.4475    0.0000 S   0  0  0  0  0  0  0  0  0  0  0  0
   11.7469   -5.0893    0.0000 S   0  0  0  0  0  0  0  0  0  0  0  0
    7.6428   -2.9847    0.0000 S   0  0  0  0  0  0  0  0  0  0  0  0
  -12.6224   -3.0403    0.0000 S   0  0  0  0  0  0  0  0  0  0  0  0
  -11.4209   -7.3110    0.0000 S   0  0  0  0  0  0  0  0  0  0  0  0
  -13.8431    0.5715    0.0000 S   0  0  0  0  0  0  0  0  0  0  0  0
    0.0000    0.0000    0.0000 H   0  0  0  0  0  0  0  0  0  0  0  0
    0.0000    0.0000    0.0000 H   0  0  0  0  0  0  0  0  0  0  0  0
    0.0000    0.0000    0.0000 H   0  0  0  0  0  0  0  0  0  0  0  0
    0.0000    0.0000    0.0000 H   0  0  0  0  0  0  0  0  0  0  0  0
    0.0000    0.0000    0.0000 H   0  0  0  0  0  0  0  0  0  0  0  0
    0.0000    0.0000    0.0000 H   0  0  0  0  0  0  0  0  0  0  0  0
    0.0000    0.0000    0.0000 H   0  0  0  0  0  0  0  0  0  0  0  0
    0.0000    0.0000    0.0000 H   0  0  0  0  0  0  0  0  0  0  0  0
    0.0000    0.0000    0.0000 H   0  0  0  0  0  0  0  0  0  0  0  0
    0.0000    0.0000    0.0000 H   0  0  0  0  0  0  0  0  0  0  0  0
    0.0000    0.0000    0.0000 H   0  0  0  0  0  0  0  0  0  0  0  0
    0.0000    0.0000    0.0000 H   0  0  0  0  0  0  0  0  0  0  0  0
    0.0000    0.0000    0.0000 H   0  0  0  0  0  0  0  0  0  0  0  0
    0.0000    0.0000    0.0000 H   0  0  0  0  0  0  0  0  0  0  0  0
    0.0000    0.0000    0.0000 H   0  0  0  0  0  0  0  0  0  0  0  0
    0.0000    0.0000    0.0000 H   0  0  0  0  0  0  0  0  0  0  0  0
    0.0000    0.0000    0.0000 H   0  0  0  0  0  0  0  0  0  0  0  0
    0.0000    0.0000    0.0000 H   0  0  0  0  0  0  0  0  0  0  0  0
    0.0000    0.0000    0.0000 H   0  0  0  0  0  0  0  0  0  0  0  0
    0.0000    0.0000    0.0000 H   0  0  0  0  0  0  0  0  0  0  0  0
    0.0000    0.0000    0.0000 H   0  0  0  0  0  0  0  0  0  0  0  0
    0.0000    0.0000    0.0000 H   0  0  0  0  0  0  0  0  0  0  0  0
    0.0000    0.0000    0.0000 H   0  0  0  0  0  0  0  0  0  0  0  0
    0.0000    0.0000    0.0000 H   0  0  0  0  0  0  0  0  0  0  0  0
    0.0000    0.0000    0.0000 H   0  0  0  0  0  0  0  0  0  0  0  0
    0.0000    0.0000    0.0000 H   0  0  0  0  0  0  0  0  0  0  0  0
    0.0000    0.0000    0.0000 H   0  0  0  0  0  0  0  0  0  0  0  0
    0.0000    0.0000    0.0000 H   0  0  0  0  0  0  0  0  0  0  0  0
    0.0000    0.0000    0.0000 H   0  0  0  0  0  0  0  0  0  0  0  0
    0.0000    0.0000    0.0000 H   0  0  0  0  0  0  0  0  0  0  0  0
    0.0000    0.0000    0.0000 H   0  0  0  0  0  0  0  0  0  0  0  0
    0.0000    0.0000    0.0000 H   0  0  0  0  0  0  0  0  0  0  0  0
    0.0000    0.0000    0.0000 H   0  0  0  0  0  0  0  0  0  0  0  0
    0.0000    0.0000    0.0000 H   0  0  0  0  0  0  0  0  0  0  0  0
    0.0000    0.0000    0.0000 H   0  0  0  0  0  0  0  0  0  0  0  0
    0.0000    0.0000    0.0000 H   0  0  0  0  0  0  0  0  0  0  0  0
    0.0000    0.0000    0.0000 H   0  0  0  0  0  0  0  0  0  0  0  0
    0.0000    0.0000    0.0000 H   0  0  0  0  0  0  0  0  0  0  0  0
    0.0000    0.0000    0.0000 H   0  0  0  0  0  0  0  0  0  0  0  0
    0.0000    0.0000    0.0000 H   0  0  0  0  0  0  0  0  0  0  0  0
    0.0000    0.0000    0.0000 H   0  0  0  0  0  0  0  0  0  0  0  0
    0.0000    0.0000    0.0000 H   0  0  0  0  0  0  0  0  0  0  0  0
    0.0000    0.0000    0.0000 H   0  0  0  0  0  0  0  0  0  0  0  0
    0.0000    0.0000    0.0000 H   0  0  0  0  0  0  0  0  0  0  0  0
    0.0000    0.0000    0.0000 H   0  0  0  0  0  0  0  0  0  0  0  0
    0.0000    0.0000    0.0000 H   0  0  0  0  0  0  0  0  0  0  0  0
    0.0000    0.0000    0.0000 H   0  0  0  0  0  0  0  0  0  0  0  0
    0.0000    0.0000    0.0000 H   0  0  0  0  0  0  0  0  0  0  0  0
    0.0000    0.0000    0.0000 H   0  0  0  0  0  0  0  0  0  0  0  0
    0.0000    0.0000    0.0000 H   0  0  0  0  0  0  0  0  0  0  0  0
    0.0000    0.0000    0.0000 H   0  0  0  0  0  0  0  0  0  0  0  0
    0.0000    0.0000    0.0000 H   0  0  0  0  0  0  0  0  0  0  0  0
    0.0000    0.0000    0.0000 H   0  0  0  0  0  0  0  0  0  0  0  0
    0.0000    0.0000    0.0000 H   0  0  0  0  0  0  0  0  0  0  0  0
    0.0000    0.0000    0.0000 H   0  0  0  0  0  0  0  0  0  0  0  0
    0.0000    0.0000    0.0000 H   0  0  0  0  0  0  0  0  0  0  0  0
    0.0000    0.0000    0.0000 H   0  0  0  0  0  0  0  0  0  0  0  0
    0.0000    0.0000    0.0000 H   0  0  0  0  0  0  0  0  0  0  0  0
    0.0000    0.0000    0.0000 H   0  0  0  0  0  0  0  0  0  0  0  0
    0.0000    0.0000    0.0000 H   0  0  0  0  0  0  0  0  0  0  0  0
    0.0000    0.0000    0.0000 H   0  0  0  0  0  0  0  0  0  0  0  0
    0.0000    0.0000    0.0000 H   0  0  0  0  0  0  0  0  0  0  0  0
    0.0000    0.0000    0.0000 H   0  0  0  0  0  0  0  0  0  0  0  0
    0.0000    0.0000    0.0000 H   0  0  0  0  0  0  0  0  0  0  0  0
    0.0000    0.0000    0.0000 H   0  0  0  0  0  0  0  0  0  0  0  0
    0.0000    0.0000    0.0000 H   0  0  0  0  0  0  0  0  0  0  0  0
    0.0000    0.0000    0.0000 H   0  0  0  0  0  0  0  0  0  0  0  0
    0.0000    0.0000    0.0000 H   0  0  0  0  0  0  0  0  0  0  0  0
    0.0000    0.0000    0.0000 H   0  0  0  0  0  0  0  0  0  0  0  0
    0.0000    0.0000    0.0000 H   0  0  0  0  0  0  0  0  0  0  0  0
    0.0000    0.0000    0.0000 H   0  0  0  0  0  0  0  0  0  0  0  0
    0.0000    0.0000    0.0000 H   0  0  0  0  0  0  0  0  0  0  0  0
    0.0000    0.0000    0.0000 H   0  0  0  0  0  0  0  0  0  0  0  0
    0.0000    0.0000    0.0000 H   0  0  0  0  0  0  0  0  0  0  0  0
    0.0000    0.0000    0.0000 H   0  0  0  0  0  0  0  0  0  0  0  0
    0.0000    0.0000    0.0000 H   0  0  0  0  0  0  0  0  0  0  0  0
    0.0000    0.0000    0.0000 H   0  0  0  0  0  0  0  0  0  0  0  0
    0.0000    0.0000    0.0000 H   0  0  0  0  0  0  0  0  0  0  0  0
    0.0000    0.0000    0.0000 H   0  0  0  0  0  0  0  0  0  0  0  0
    0.0000    0.0000    0.0000 H   0  0  0  0  0  0  0  0  0  0  0  0
    0.0000    0.0000    0.0000 H   0  0  0  0  0  0  0  0  0  0  0  0
    0.0000    0.0000    0.0000 H   0  0  0  0  0  0  0  0  0  0  0  0
    0.0000    0.0000    0.0000 H   0  0  0  0  0  0  0  0  0  0  0  0
    0.0000    0.0000    0.0000 H   0  0  0  0  0  0  0  0  0  0  0  0
    0.0000    0.0000    0.0000 H   0  0  0  0  0  0  0  0  0  0  0  0
    0.0000    0.0000    0.0000 H   0  0  0  0  0  0  0  0  0  0  0  0
    0.0000    0.0000    0.0000 H   0  0  0  0  0  0  0  0  0  0  0  0
    0.0000    0.0000    0.0000 H   0  0  0  0  0  0  0  0  0  0  0  0
    0.0000    0.0000    0.0000 H   0  0  0  0  0  0  0  0  0  0  0  0
    0.0000    0.0000    0.0000 H   0  0  0  0  0  0  0  0  0  0  0  0
    0.0000    0.0000    0.0000 H   0  0  0  0  0  0  0  0  0  0  0  0
    0.0000    0.0000    0.0000 H   0  0  0  0  0  0  0  0  0  0  0  0
    0.0000    0.0000    0.0000 H   0  0  0  0  0  0  0  0  0  0  0  0
    0.0000    0.0000    0.0000 H   0  0  0  0  0  0  0  0  0  0  0  0
    0.0000    0.0000    0.0000 H   0  0  0  0  0  0  0  0  0  0  0  0
    0.0000    0.0000    0.0000 H   0  0  0  0  0  0  0  0  0  0  0  0
    0.0000    0.0000    0.0000 H   0  0  0  0  0  0  0  0  0  0  0  0
    0.0000    0.0000    0.0000 H   0  0  0  0  0  0  0  0  0  0  0  0
    0.0000    0.0000    0.0000 H   0  0  0  0  0  0  0  0  0  0  0  0
    0.0000    0.0000    0.0000 H   0  0  0  0  0  0  0  0  0  0  0  0
    0.0000    0.0000    0.0000 H   0  0  0  0  0  0  0  0  0  0  0  0
    0.0000    0.0000    0.0000 H   0  0  0  0  0  0  0  0  0  0  0  0
    0.0000    0.0000    0.0000 H   0  0  0  0  0  0  0  0  0  0  0  0
    0.0000    0.0000    0.0000 H   0  0  0  0  0  0  0  0  0  0  0  0
    0.0000    0.0000    0.0000 H   0  0  0  0  0  0  0  0  0  0  0  0
    0.0000    0.0000    0.0000 H   0  0  0  0  0  0  0  0  0  0  0  0
    0.0000    0.0000    0.0000 H   0  0  0  0  0  0  0  0  0  0  0  0
    0.0000    0.0000    0.0000 H   0  0  0  0  0  0  0  0  0  0  0  0
    0.0000    0.0000    0.0000 H   0  0  0  0  0  0  0  0  0  0  0  0
    0.0000    0.0000    0.0000 H   0  0  0  0  0  0  0  0  0  0  0  0
    0.0000    0.0000    0.0000 H   0  0  0  0  0  0  0  0  0  0  0  0
    0.0000    0.0000    0.0000 H   0  0  0  0  0  0  0  0  0  0  0  0
    0.0000    0.0000    0.0000 H   0  0  0  0  0  0  0  0  0  0  0  0
    0.0000    0.0000    0.0000 H   0  0  0  0  0  0  0  0  0  0  0  0
    0.0000    0.0000    0.0000 H   0  0  0  0  0  0  0  0  0  0  0  0
    0.0000    0.0000    0.0000 H   0  0  0  0  0  0  0  0  0  0  0  0
    0.0000    0.0000    0.0000 H   0  0  0  0  0  0  0  0  0  0  0  0
    0.0000    0.0000    0.0000 H   0  0  0  0  0  0  0  0  0  0  0  0
    0.0000    0.0000    0.0000 H   0  0  0  0  0  0  0  0  0  0  0  0
    0.0000    0.0000    0.0000 H   0  0  0  0  0  0  0  0  0  0  0  0
    0.0000    0.0000    0.0000 H   0  0  0  0  0  0  0  0  0  0  0  0
    0.0000    0.0000    0.0000 H   0  0  0  0  0  0  0  0  0  0  0  0
    0.0000    0.0000    0.0000 H   0  0  0  0  0  0  0  0  0  0  0  0
    0.0000    0.0000    0.0000 H   0  0  0  0  0  0  0  0  0  0  0  0
    0.0000    0.0000    0.0000 H   0  0  0  0  0  0  0  0  0  0  0  0
    0.0000    0.0000    0.0000 H   0  0  0  0  0  0  0  0  0  0  0  0
    0.0000    0.0000    0.0000 H   0  0  0  0  0  0  0  0  0  0  0  0
    0.0000    0.0000    0.0000 H   0  0  0  0  0  0  0  0  0  0  0  0
    0.0000    0.0000    0.0000 H   0  0  0  0  0  0  0  0  0  0  0  0
    0.0000    0.0000    0.0000 H   0  0  0  0  0  0  0  0  0  0  0  0
    0.0000    0.0000    0.0000 H   0  0  0  0  0  0  0  0  0  0  0  0
    0.0000    0.0000    0.0000 H   0  0  0  0  0  0  0  0  0  0  0  0
    0.0000    0.0000    0.0000 H   0  0  0  0  0  0  0  0  0  0  0  0
    0.0000    0.0000    0.0000 H   0  0  0  0  0  0  0  0  0  0  0  0
    0.0000    0.0000    0.0000 H   0  0  0  0  0  0  0  0  0  0  0  0
    0.0000    0.0000    0.0000 H   0  0  0  0  0  0  0  0  0  0  0  0
    0.0000    0.0000    0.0000 H   0  0  0  0  0  0  0  0  0  0  0  0
    0.0000    0.0000    0.0000 H   0  0  0  0  0  0  0  0  0  0  0  0
    0.0000    0.0000    0.0000 H   0  0  0  0  0  0  0  0  0  0  0  0
    0.0000    0.0000    0.0000 H   0  0  0  0  0  0  0  0  0  0  0  0
    0.0000    0.0000    0.0000 H   0  0  0  0  0  0  0  0  0  0  0  0
    0.0000    0.0000    0.0000 H   0  0  0  0  0  0  0  0  0  0  0  0
    0.0000    0.0000    0.0000 H   0  0  0  0  0  0  0  0  0  0  0  0
    0.0000    0.0000    0.0000 H   0  0  0  0  0  0  0  0  0  0  0  0
    0.0000    0.0000    0.0000 H   0  0  0  0  0  0  0  0  0  0  0  0
    0.0000    0.0000    0.0000 H   0  0  0  0  0  0  0  0  0  0  0  0
    0.0000    0.0000    0.0000 H   0  0  0  0  0  0  0  0  0  0  0  0
    0.0000    0.0000    0.0000 H   0  0  0  0  0  0  0  0  0  0  0  0
    0.0000    0.0000    0.0000 H   0  0  0  0  0  0  0  0  0  0  0  0
    0.0000    0.0000    0.0000 H   0  0  0  0  0  0  0  0  0  0  0  0
    0.0000    0.0000    0.0000 H   0  0  0  0  0  0  0  0  0  0  0  0
    0.0000    0.0000    0.0000 H   0  0  0  0  0  0  0  0  0  0  0  0
    0.0000    0.0000    0.0000 H   0  0  0  0  0  0  0  0  0  0  0  0
    0.0000    0.0000    0.0000 H   0  0  0  0  0  0  0  0  0  0  0  0
    0.0000    0.0000    0.0000 H   0  0  0  0  0  0  0  0  0  0  0  0
    0.0000    0.0000    0.0000 H   0  0  0  0  0  0  0  0  0  0  0  0
    0.0000    0.0000    0.0000 H   0  0  0  0  0  0  0  0  0  0  0  0
    0.0000    0.0000    0.0000 H   0  0  0  0  0  0  0  0  0  0  0  0
    0.0000    0.0000    0.0000 H   0  0  0  0  0  0  0  0  0  0  0  0
    0.0000    0.0000    0.0000 H   0  0  0  0  0  0  0  0  0  0  0  0
    0.0000    0.0000    0.0000 H   0  0  0  0  0  0  0  0  0  0  0  0
    0.0000    0.0000    0.0000 H   0  0  0  0  0  0  0  0  0  0  0  0
    0.0000    0.0000    0.0000 H   0  0  0  0  0  0  0  0  0  0  0  0
    0.0000    0.0000    0.0000 H   0  0  0  0  0  0  0  0  0  0  0  0
    0.0000    0.0000    0.0000 H   0  0  0  0  0  0  0  0  0  0  0  0
    0.0000    0.0000    0.0000 H   0  0  0  0  0  0  0  0  0  0  0  0
    0.0000    0.0000    0.0000 H   0  0  0  0  0  0  0  0  0  0  0  0
    0.0000    0.0000    0.0000 H   0  0  0  0  0  0  0  0  0  0  0  0
    0.0000    0.0000    0.0000 H   0  0  0  0  0  0  0  0  0  0  0  0
    0.0000    0.0000    0.0000 H   0  0  0  0  0  0  0  0  0  0  0  0
    0.0000    0.0000    0.0000 H   0  0  0  0  0  0  0  0  0  0  0  0
    0.0000    0.0000    0.0000 H   0  0  0  0  0  0  0  0  0  0  0  0
    0.0000    0.0000    0.0000 H   0  0  0  0  0  0  0  0  0  0  0  0
    0.0000    0.0000    0.0000 H   0  0  0  0  0  0  0  0  0  0  0  0
    0.0000    0.0000    0.0000 H   0  0  0  0  0  0  0  0  0  0  0  0
    0.0000    0.0000    0.0000 H   0  0  0  0  0  0  0  0  0  0  0  0
    0.0000    0.0000    0.0000 H   0  0  0  0  0  0  0  0  0  0  0  0
    0.0000    0.0000    0.0000 H   0  0  0  0  0  0  0  0  0  0  0  0
    0.0000    0.0000    0.0000 H   0  0  0  0  0  0  0  0  0  0  0  0
    0.0000    0.0000    0.0000 H   0  0  0  0  0  0  0  0  0  0  0  0
    0.0000    0.0000    0.0000 H   0  0  0  0  0  0  0  0  0  0  0  0
    0.0000    0.0000    0.0000 H   0  0  0  0  0  0  0  0  0  0  0  0
    0.0000    0.0000    0.0000 H   0  0  0  0  0  0  0  0  0  0  0  0
    0.0000    0.0000    0.0000 H   0  0  0  0  0  0  0  0  0  0  0  0
    0.0000    0.0000    0.0000 H   0  0  0  0  0  0  0  0  0  0  0  0
    0.0000    0.0000    0.0000 H   0  0  0  0  0  0  0  0  0  0  0  0
    0.0000    0.0000    0.0000 H   0  0  0  0  0  0  0  0  0  0  0  0
    0.0000    0.0000    0.0000 H   0  0  0  0  0  0  0  0  0  0  0  0
    0.0000    0.0000    0.0000 H   0  0  0  0  0  0  0  0  0  0  0  0
    0.0000    0.0000    0.0000 H   0  0  0  0  0  0  0  0  0  0  0  0
    0.0000    0.0000    0.0000 H   0  0  0  0  0  0  0  0  0  0  0  0
    0.0000    0.0000    0.0000 H   0  0  0  0  0  0  0  0  0  0  0  0
    0.0000    0.0000    0.0000 H   0  0  0  0  0  0  0  0  0  0  0  0
    0.0000    0.0000    0.0000 H   0  0  0  0  0  0  0  0  0  0  0  0
    0.0000    0.0000    0.0000 H   0  0  0  0  0  0  0  0  0  0  0  0
    0.0000    0.0000    0.0000 H   0  0  0  0  0  0  0  0  0  0  0  0
    0.0000    0.0000    0.0000 H   0  0  0  0  0  0  0  0  0  0  0  0
    0.0000    0.0000    0.0000 H   0  0  0  0  0  0  0  0  0  0  0  0
    0.0000    0.0000    0.0000 H   0  0  0  0  0  0  0  0  0  0  0  0
    0.0000    0.0000    0.0000 H   0  0  0  0  0  0  0  0  0  0  0  0
    0.0000    0.0000    0.0000 H   0  0  0  0  0  0  0  0  0  0  0  0
    0.0000    0.0000    0.0000 H   0  0  0  0  0  0  0  0  0  0  0  0
    0.0000    0.0000    0.0000 H   0  0  0  0  0  0  0  0  0  0  0  0
    0.0000    0.0000    0.0000 H   0  0  0  0  0  0  0  0  0  0  0  0
    0.0000    0.0000    0.0000 H   0  0  0  0  0  0  0  0  0  0  0  0
    0.0000    0.0000    0.0000 H   0  0  0  0  0  0  0  0  0  0  0  0
    0.0000    0.0000    0.0000 H   0  0  0  0  0  0  0  0  0  0  0  0
    0.0000    0.0000    0.0000 H   0  0  0  0  0  0  0  0  0  0  0  0
    0.0000    0.0000    0.0000 H   0  0  0  0  0  0  0  0  0  0  0  0
    0.0000    0.0000    0.0000 H   0  0  0  0  0  0  0  0  0  0  0  0
    0.0000    0.0000    0.0000 H   0  0  0  0  0  0  0  0  0  0  0  0
    0.0000    0.0000    0.0000 H   0  0  0  0  0  0  0  0  0  0  0  0
    0.0000    0.0000    0.0000 H   0  0  0  0  0  0  0  0  0  0  0  0
    0.0000    0.0000    0.0000 H   0  0  0  0  0  0  0  0  0  0  0  0
    0.0000    0.0000    0.0000 H   0  0  0  0  0  0  0  0  0  0  0  0
    0.0000    0.0000    0.0000 H   0  0  0  0  0  0  0  0  0  0  0  0
    0.0000    0.0000    0.0000 H   0  0  0  0  0  0  0  0  0  0  0  0
    0.0000    0.0000    0.0000 H   0  0  0  0  0  0  0  0  0  0  0  0
    0.0000    0.0000    0.0000 H   0  0  0  0  0  0  0  0  0  0  0  0
    0.0000    0.0000    0.0000 H   0  0  0  0  0  0  0  0  0  0  0  0
    0.0000    0.0000    0.0000 H   0  0  0  0  0  0  0  0  0  0  0  0
    0.0000    0.0000    0.0000 H   0  0  0  0  0  0  0  0  0  0  0  0
    0.0000    0.0000    0.0000 H   0  0  0  0  0  0  0  0  0  0  0  0
    0.0000    0.0000    0.0000 H   0  0  0  0  0  0  0  0  0  0  0  0
    0.0000    0.0000    0.0000 H   0  0  0  0  0  0  0  0  0  0  0  0
    0.0000    0.0000    0.0000 H   0  0  0  0  0  0  0  0  0  0  0  0
    0.0000    0.0000    0.0000 H   0  0  0  0  0  0  0  0  0  0  0  0
    0.0000    0.0000    0.0000 H   0  0  0  0  0  0  0  0  0  0  0  0
    0.0000    0.0000    0.0000 H   0  0  0  0  0  0  0  0  0  0  0  0
    0.0000    0.0000    0.0000 H   0  0  0  0  0  0  0  0  0  0  0  0
    0.0000    0.0000    0.0000 H   0  0  0  0  0  0  0  0  0  0  0  0
    0.0000    0.0000    0.0000 H   0  0  0  0  0  0  0  0  0  0  0  0
    0.0000    0.0000    0.0000 H   0  0  0  0  0  0  0  0  0  0  0  0
    0.0000    0.0000    0.0000 H   0  0  0  0  0  0  0  0  0  0  0  0
    0.0000    0.0000    0.0000 H   0  0  0  0  0  0  0  0  0  0  0  0
    0.0000    0.0000    0.0000 H   0  0  0  0  0  0  0  0  0  0  0  0
    0.0000    0.0000    0.0000 H   0  0  0  0  0  0  0  0  0  0  0  0
    0.0000    0.0000    0.0000 H   0  0  0  0  0  0  0  0  0  0  0  0
    0.0000    0.0000    0.0000 H   0  0  0  0  0  0  0  0  0  0  0  0
    0.0000    0.0000    0.0000 H   0  0  0  0  0  0  0  0  0  0  0  0
    0.0000    0.0000    0.0000 H   0  0  0  0  0  0  0  0  0  0  0  0
    0.0000    0.0000    0.0000 H   0  0  0  0  0  0  0  0  0  0  0  0
    0.0000    0.0000    0.0000 H   0  0  0  0  0  0  0  0  0  0  0  0
    0.0000    0.0000    0.0000 H   0  0  0  0  0  0  0  0  0  0  0  0
    0.0000    0.0000    0.0000 H   0  0  0  0  0  0  0  0  0  0  0  0
    0.0000    0.0000    0.0000 H   0  0  0  0  0  0  0  0  0  0  0  0
    0.0000    0.0000    0.0000 H   0  0  0  0  0  0  0  0  0  0  0  0
    0.0000    0.0000    0.0000 H   0  0  0  0  0  0  0  0  0  0  0  0
    0.0000    0.0000    0.0000 H   0  0  0  0  0  0  0  0  0  0  0  0
    0.0000    0.0000    0.0000 H   0  0  0  0  0  0  0  0  0  0  0  0
    0.0000    0.0000    0.0000 H   0  0  0  0  0  0  0  0  0  0  0  0
    0.0000    0.0000    0.0000 H   0  0  0  0  0  0  0  0  0  0  0  0
    0.0000    0.0000    0.0000 H   0  0  0  0  0  0  0  0  0  0  0  0
    0.0000    0.0000    0.0000 H   0  0  0  0  0  0  0  0  0  0  0  0
    0.0000    0.0000    0.0000 H   0  0  0  0  0  0  0  0  0  0  0  0
    0.0000    0.0000    0.0000 H   0  0  0  0  0  0  0  0  0  0  0  0
    0.0000    0.0000    0.0000 H   0  0  0  0  0  0  0  0  0  0  0  0
    0.0000    0.0000    0.0000 H   0  0  0  0  0  0  0  0  0  0  0  0
    0.0000    0.0000    0.0000 H   0  0  0  0  0  0  0  0  0  0  0  0
    0.0000    0.0000    0.0000 H   0  0  0  0  0  0  0  0  0  0  0  0
    0.0000    0.0000    0.0000 H   0  0  0  0  0  0  0  0  0  0  0  0
    0.0000    0.0000    0.0000 H   0  0  0  0  0  0  0  0  0  0  0  0
    0.0000    0.0000    0.0000 H   0  0  0  0  0  0  0  0  0  0  0  0
    0.0000    0.0000    0.0000 H   0  0  0  0  0  0  0  0  0  0  0  0
    0.0000    0.0000    0.0000 H   0  0  0  0  0  0  0  0  0  0  0  0
    0.0000    0.0000    0.0000 H   0  0  0  0  0  0  0  0  0  0  0  0
    0.0000    0.0000    0.0000 H   0  0  0  0  0  0  0  0  0  0  0  0
    0.0000    0.0000    0.0000 H   0  0  0  0  0  0  0  0  0  0  0  0
    0.0000    0.0000    0.0000 H   0  0  0  0  0  0  0  0  0  0  0  0
    0.0000    0.0000    0.0000 H   0  0  0  0  0  0  0  0  0  0  0  0
    0.0000    0.0000    0.0000 H   0  0  0  0  0  0  0  0  0  0  0  0
    0.0000    0.0000    0.0000 H   0  0  0  0  0  0  0  0  0  0  0  0
    0.0000    0.0000    0.0000 H   0  0  0  0  0  0  0  0  0  0  0  0
    0.0000    0.0000    0.0000 H   0  0  0  0  0  0  0  0  0  0  0  0
    0.0000    0.0000    0.0000 H   0  0  0  0  0  0  0  0  0  0  0  0
    0.0000    0.0000    0.0000 H   0  0  0  0  0  0  0  0  0  0  0  0
    0.0000    0.0000    0.0000 H   0  0  0  0  0  0  0  0  0  0  0  0
    0.0000    0.0000    0.0000 H   0  0  0  0  0  0  0  0  0  0  0  0
    0.0000    0.0000    0.0000 H   0  0  0  0  0  0  0  0  0  0  0  0
    0.0000    0.0000    0.0000 H   0  0  0  0  0  0  0  0  0  0  0  0
    0.0000    0.0000    0.0000 H   0  0  0  0  0  0  0  0  0  0  0  0
    0.0000    0.0000    0.0000 H   0  0  0  0  0  0  0  0  0  0  0  0
    0.0000    0.0000    0.0000 H   0  0  0  0  0  0  0  0  0  0  0  0
    0.0000    0.0000    0.0000 H   0  0  0  0  0  0  0  0  0  0  0  0
    0.0000    0.0000    0.0000 H   0  0  0  0  0  0  0  0  0  0  0  0
    0.0000    0.0000    0.0000 H   0  0  0  0  0  0  0  0  0  0  0  0
    0.0000    0.0000    0.0000 H   0  0  0  0  0  0  0  0  0  0  0  0
    0.0000    0.0000    0.0000 H   0  0  0  0  0  0  0  0  0  0  0  0
    0.0000    0.0000    0.0000 H   0  0  0  0  0  0  0  0  0  0  0  0
    0.0000    0.0000    0.0000 H   0  0  0  0  0  0  0  0  0  0  0  0
    0.0000    0.0000    0.0000 H   0  0  0  0  0  0  0  0  0  0  0  0
    0.0000    0.0000    0.0000 H   0  0  0  0  0  0  0  0  0  0  0  0
    0.0000    0.0000    0.0000 H   0  0  0  0  0  0  0  0  0  0  0  0
    0.0000    0.0000    0.0000 H   0  0  0  0  0  0  0  0  0  0  0  0
    0.0000    0.0000    0.0000 H   0  0  0  0  0  0  0  0  0  0  0  0
    0.0000    0.0000    0.0000 H   0  0  0  0  0  0  0  0  0  0  0  0
    0.0000    0.0000    0.0000 H   0  0  0  0  0  0  0  0  0  0  0  0
    0.0000    0.0000    0.0000 H   0  0  0  0  0  0  0  0  0  0  0  0
    0.0000    0.0000    0.0000 H   0  0  0  0  0  0  0  0  0  0  0  0
    0.0000    0.0000    0.0000 H   0  0  0  0  0  0  0  0  0  0  0  0
    0.0000    0.0000    0.0000 H   0  0  0  0  0  0  0  0  0  0  0  0
    0.0000    0.0000    0.0000 H   0  0  0  0  0  0  0  0  0  0  0  0
    0.0000    0.0000    0.0000 H   0  0  0  0  0  0  0  0  0  0  0  0
    0.0000    0.0000    0.0000 H   0  0  0  0  0  0  0  0  0  0  0  0
    0.0000    0.0000    0.0000 H   0  0  0  0  0  0  0  0  0  0  0  0
    0.0000    0.0000    0.0000 H   0  0  0  0  0  0  0  0  0  0  0  0
    0.0000    0.0000    0.0000 H   0  0  0  0  0  0  0  0  0  0  0  0
    0.0000    0.0000    0.0000 H   0  0  0  0  0  0  0  0  0  0  0  0
    0.0000    0.0000    0.0000 H   0  0  0  0  0  0  0  0  0  0  0  0
    0.0000    0.0000    0.0000 H   0  0  0  0  0  0  0  0  0  0  0  0
    0.0000    0.0000    0.0000 H   0  0  0  0  0  0  0  0  0  0  0  0
    0.0000    0.0000    0.0000 H   0  0  0  0  0  0  0  0  0  0  0  0
    0.0000    0.0000    0.0000 H   0  0  0  0  0  0  0  0  0  0  0  0
    0.0000    0.0000    0.0000 H   0  0  0  0  0  0  0  0  0  0  0  0
    0.0000    0.0000    0.0000 H   0  0  0  0  0  0  0  0  0  0  0  0
    0.0000    0.0000    0.0000 H   0  0  0  0  0  0  0  0  0  0  0  0
    0.0000    0.0000    0.0000 H   0  0  0  0  0  0  0  0  0  0  0  0
    0.0000    0.0000    0.0000 H   0  0  0  0  0  0  0  0  0  0  0  0
    0.0000    0.0000    0.0000 H   0  0  0  0  0  0  0  0  0  0  0  0
    0.0000    0.0000    0.0000 H   0  0  0  0  0  0  0  0  0  0  0  0
    0.0000    0.0000    0.0000 H   0  0  0  0  0  0  0  0  0  0  0  0
    0.0000    0.0000    0.0000 H   0  0  0  0  0  0  0  0  0  0  0  0
    0.0000    0.0000    0.0000 H   0  0  0  0  0  0  0  0  0  0  0  0
    0.0000    0.0000    0.0000 H   0  0  0  0  0  0  0  0  0  0  0  0
 35 25  1  0
 36 26  1  0
 37 27  1  0
 38 28  1  0
 39 29  1  0
 40 30  1  0
 41 31  1  0
 42 32  1  0
 43 33  1  0
 44 34  1  0
 97  1  1  0
 97 55  2  3
 98  2  1  0
 98 56  2  3
 99  3  1  0
 99 57  2  3
100  4  1  0
100 58  2  3
101  5  1  0
101 59  2  3
102  6  1  0
102 60  2  3
103  7  1  0
103 61  2  3
104  8  1  0
104 62  2  3
105  9  1  0
105 63  2  3
106 10  1  0
106 64  2  3
107 11  1  0
107 65  2  3
108 12  1  0
108 66  2  3
109 13  1  0
109 67  2  3
110 14  1  0
110 68  2  3
111 45  1  0
112 46  1  0
113 47  1  0
114 48  1  0
115 49  1  0
116 50  1  0
117 51  1  0
118 52  1  0
119 53  1  0
120 54  1  0
121 69  1  0
122 70  1  0
122111  1  0
123 71  1  0
123112  1  0
124 72  1  0
124113  1  0
125 73  1  0
125115  1  0
126 75  1  0
126114  1  0
127 74  1  0
127117  1  0
128 76  1  0
128116  1  0
129 77  1  0
129119  1  0
130 78  1  0
130120  1  0
131 79  1  0
131118  1  0
132 80  1  0
133 82  1  0
134 83  1  0
135 84  1  0
136 85  1  0
137 86  1  0
138 87  1  0
139 81  1  0
140 88  1  0
141 45  1  0
142 46  1  0
143 47  1  0
144 48  1  0
145 49  1  0
146 50  1  0
147 51  1  0
148 52  1  0
149 53  1  0
150 54  1  0
157132  1  0
158121  1  0
159134  1  0
160135  1  0
161133  1  0
162136  1  0
163137  1  0
164138  1  0
165140  1  0
166139  1  0
167157  1  0
168158  1  0
169159  1  0
170160  1  0
171161  1  0
172162  1  0
173163  1  0
174164  1  0
175165  1  0
176166  1  0
177 97  1  0
178 98  1  0
179 99  1  0
180100  1  0
181101  1  0
182102  1  0
183103  1  0
184104  1  0
185105  1  0
186151  2  3
187152  2  3
188151  1  0
189152  1  0
190153  2  3
191154  2  3
192155  2  3
193156  2  3
194106  1  0
195107  1  0
196108  1  0
197109  1  0
198110  1  0
199153  1  0
200154  1  0
201155  1  0
202156  1  0
203167  1  0
204169  1  0
205170  1  0
206171  1  0
207172  1  0
208173  1  0
209174  1  0
210175  1  0
211168  1  0
212176  1  0
231177  2  3
232178  2  3
233179  2  3
234180  2  3
235181  2  3
236182  2  3
237183  2  3
238184  2  3
239185  2  3
240186  1  0
241187  1  0
242213  2  3
243214  2  3
244215  2  3
245216  2  3
246 89  2  3
246186  1  0
247 90  2  3
247187  1  0
248 89  1  0
248188  2  3
249 90  1  0
249189  2  3
250 91  2  3
250151  1  0
251 94  2  3
251152  1  0
252 92  2  3
252153  1  0
253 93  2  3
253154  1  0
254 95  2  3
254155  1  0
255 96  2  3
255156  1  0
256177  1  0
256217  2  3
257178  1  0
257218  2  3
258179  1  0
258219  2  3
259180  1  0
259220  2  3
260181  1  0
260221  2  3
261182  1  0
261222  2  3
262183  1  0
262223  2  3
263184  1  0
263224  2  3
264185  1  0
264225  2  3
265190  1  0
265213  1  0
266191  1  0
266214  1  0
267192  1  0
267215  1  0
268193  1  0
268216  1  0
269199  2  3
269213  1  0
270200  2  3
270214  1  0
271201  2  3
271215  1  0
272202  2  3
272216  1  0
273194  2  3
273226  1  0
274195  2  3
274227  1  0
275196  2  3
275228  1  0
276197  2  3
276229  1  0
277198  2  3
277230  1  0
278 55  1  0
278141  1  0
278217  1  0
279 56  1  0
279142  1  0
279218  1  0
280 57  1  0
280143  1  0
280219  1  0
281 64  1  0
281144  1  0
281226  1  0
282 65  1  0
282145  1  0
282227  1  0
283 66  1  0
283146  1  0
283228  1  0
284 67  1  0
284147  1  0
284229  1  0
285 58  1  0
285203  1  0
285220  1  0
286 59  1  0
286204  1  0
286221  1  0
287 60  1  0
287205  1  0
287222  1  0
288 61  1  0
288206  1  0
288223  1  0
289 62  1  0
289207  1  0
289224  1  0
290 63  1  0
290208  1  0
290225  1  0
291 68  1  0
291209  1  0
291230  1  0
292 91  1  0
292148  1  0
292188  1  0
293 92  1  0
293149  1  0
293190  1  0
294 93  1  0
294150  1  0
294191  1  0
295 94  1  0
295189  1  0
295210  1  0
296 95  1  0
296192  1  0
296211  1  0
297 96  1  0
297193  1  0
297212  1  0
298 69  1  0
299157  1  0
300194  1  0
301195  1  0
302196  1  0
303197  1  0
304198  1  0
305199  1  0
306200  1  0
307201  1  0
308202  1  0
309217  1  0
310218  1  0
311219  1  0
312220  1  0
313221  1  0
314222  1  0
315223  1  0
316224  1  0
317225  1  0
318226  2  0
319227  2  0
320228  2  0
321229  2  0
322230  2  0
342 15  1  0
342 25  1  0
343 16  1  0
343 26  1  0
344 17  1  0
344 27  1  0
345 18  1  0
345 28  1  0
346 19  1  0
346 29  1  0
347 20  1  0
347 30  1  0
348 21  1  0
348 31  1  0
349 22  1  0
349 32  1  0
350 23  1  0
350 33  1  0
351 24  1  0
351 34  1  0
352 35  1  0
352167  1  0
353 36  1  0
353168  1  0
354 37  1  0
354169  1  0
355 38  1  0
355170  1  0
356 39  1  0
356171  1  0
357 40  1  0
357172  1  0
358 41  1  0
358173  1  0
359 42  1  0
359174  1  0
360 43  1  0
360175  1  0
361 44  1  0
361176  1  0
362 70  1  0
363 72  1  0
364 73  1  0
365 74  1  0
366 75  1  0
367 71  1  0
368 76  1  0
369 77  1  0
370 78  1  0
371 79  1  0
372 80  1  0
373 81  1  0
374 82  1  0
375 83  1  0
376 85  1  0
377 87  1  0
378 84  1  0
379 86  1  0
380 88  1  0
381122  1  0
381141  1  0
382123  1  0
382142  1  0
383124  1  0
383143  1  0
384125  1  0
384145  1  0
385126  1  0
385144  1  0
386127  1  0
386147  1  0
387128  1  0
387146  1  0
388131  1  0
388148  1  0
389129  1  0
389149  1  0
390130  1  0
390150  1  0
391121  1  0
391211  1  0
392132  1  0
392203  1  0
393133  1  0
393206  1  0
394134  1  0
394204  1  0
395135  1  0
395205  1  0
396136  1  0
396207  1  0
397137  1  0
397208  1  0
398138  1  0
398209  1  0
399140  1  0
399210  1  0
400139  1  0
400212  1  0
401111  1  0
402112  1  0
403114  1  0
404116  1  0
405115  1  0
406117  1  0
407113  1  0
408118  1  0
409119  1  0
410120  1  0
411158  1  0
412159  1  0
413160  1  0
414161  1  0
415162  1  0
416163  1  0
417164  1  0
418165  1  0
419166  1  0
420323  1  0
420365  1  0
420401  1  0
421324  1  0
421364  1  0
421402  1  0
422325  1  0
422362  1  0
422404  1  0
423326  1  0
423363  1  0
423403  1  0
424327  1  0
424366  1  0
424405  1  0
425328  1  0
425369  1  0
425406  1  0
426329  1  0
426367  1  0
426409  1  0
427330  1  0
427368  1  0
427410  1  0
428331  1  0
428370  1  0
428408  1  0
429332  1  0
429373  1  0
429407  1  0
430333  1  0
430371  1  0
430412  1  0
431334  1  0
431372  1  0
431413  1  0
432335  1  0
432374  1  0
432411  1  0
433336  1  0
433376  1  0
433414  1  0
434337  1  0
434377  1  0
434415  1  0
435338  1  0
435375  1  0
435417  1  0
436339  1  0
436380  1  0
436416  1  0
437340  1  0
437378  1  0
437418  1  0
438341  1  0
438379  1  0
438419  1  0
439420  2  0
440421  2  0
441422  2  0
442423  2  0
443424  2  0
444425  2  0
445426  2  0
446427  2  0
447428  2  0
448429  2  0
449430  2  0
450431  2  0
451432  2  0
452433  2  0
453434  2  0
454435  2  0
455436  2  0
456437  2  0
457438  2  0
  1458  1  0
  1459  1  0
  1460  1  0
  2461  1  0
  2462  1  0
  2463  1  0
  3464  1  0
  3465  1  0
  3466  1  0
  4467  1  0
  4468  1  0
  4469  1  0
  5470  1  0
  5471  1  0
  5472  1  0
  6473  1  0
  6474  1  0
  6475  1  0
  7476  1  0
  7477  1  0
  7478  1  0
  8479  1  0
  8480  1  0
  8481  1  0
  9482  1  0
  9483  1  0
  9484  1  0
 10485  1  0
 10486  1  0
 10487  1  0
 11488  1  0
 11489  1  0
 11490  1  0
 12491  1  0
 12492  1  0
 12493  1  0
 13494  1  0
 13495  1  0
 13496  1  0
 14497  1  0
 14498  1  0
 14499  1  0
 15500  1  0
 15501  1  0
 15502  1  0
 16503  1  0
 16504  1  0
 16505  1  0
 17506  1  0
 17507  1  0
 17508  1  0
 18509  1  0
 18510  1  0
 18511  1  0
 19512  1  0
 19513  1  0
 19514  1  0
 20515  1  0
 20516  1  0
 20517  1  0
 21518  1  0
 21519  1  0
 21520  1  0
 22521  1  0
 22522  1  0
 22523  1  0
 23524  1  0
 23525  1  0
 23526  1  0
 24527  1  0
 24528  1  0
 24529  1  0
 25530  1  0
 25531  1  0
 26532  1  0
 26533  1  0
 27534  1  0
 27535  1  0
 28536  1  0
 28537  1  0
 29538  1  0
 29539  1  0
 30540  1  0
 30541  1  0
 31542  1  0
 31543  1  0
 32544  1  0
 32545  1  0
 33546  1  0
 33547  1  0
 34548  1  0
 34549  1  0
 35550  1  0
 35551  1  0
 36552  1  0
 36553  1  0
 37554  1  0
 37555  1  0
 38556  1  0
 38557  1  0
 39558  1  0
 39559  1  0
 40560  1  0
 40561  1  0
 41562  1  0
 41563  1  0
 42564  1  0
 42565  1  0
 43566  1  0
 43567  1  0
 44568  1  0
 44569  1  0
 45570  1  0
 45571  1  0
 46572  1  0
 46573  1  0
 47574  1  0
 47575  1  0
 48576  1  0
 48577  1  0
 49578  1  0
 49579  1  0
 50580  1  0
 50581  1  0
 51582  1  0
 51583  1  0
 52584  1  0
 52585  1  0
 53586  1  0
 53587  1  0
 54588  1  0
 54589  1  0
 55590  1  0
 56591  1  0
 57592  1  0
 58593  1  0
 59594  1  0
 60595  1  0
 61596  1  0
 62597  1  0
 63598  1  0
 64599  1  0
 65600  1  0
 66601  1  0
 67602  1  0
 68603  1  0
 69604  1  0
 69605  1  0
 70606  1  0
 70607  1  0
 71608  1  0
 71609  1  0
 72610  1  0
 72611  1  0
 73612  1  0
 73613  1  0
 74614  1  0
 74615  1  0
 75616  1  0
 75617  1  0
 76618  1  0
 76619  1  0
 77620  1  0
 77621  1  0
 78622  1  0
 78623  1  0
 79624  1  0
 79625  1  0
 80626  1  0
 80627  1  0
 81628  1  0
 81629  1  0
 82630  1  0
 82631  1  0
 83632  1  0
 83633  1  0
 84634  1  0
 84635  1  0
 85636  1  0
 85637  1  0
 86638  1  0
 86639  1  0
 87640  1  0
 87641  1  0
 88642  1  0
 88643  1  0
 89644  1  0
 90645  1  0
 91646  1  0
 92647  1  0
 93648  1  0
 94649  1  0
 95650  1  0
 96651  1  0
111652  1  0
112653  1  0
113654  1  0
114655  1  0
115656  1  0
116657  1  0
117658  1  0
118659  1  0
119660  1  0
120661  1  0
121662  1  0
122663  1  0
123664  1  0
124665  1  0
125666  1  0
126667  1  0
127668  1  0
128669  1  0
129670  1  0
130671  1  0
131672  1  0
132673  1  0
133674  1  0
134675  1  0
135676  1  0
136677  1  0
137678  1  0
138679  1  0
139680  1  0
140681  1  0
141682  1  0
142683  1  0
143684  1  0
144685  1  0
145686  1  0
146687  1  0
147688  1  0
148689  1  0
149690  1  0
150691  1  0
157692  1  0
158693  1  0
159694  1  0
160695  1  0
161696  1  0
162697  1  0
163698  1  0
164699  1  0
165700  1  0
166701  1  0
167702  1  0
168703  1  0
169704  1  0
170705  1  0
171706  1  0
172707  1  0
173708  1  0
174709  1  0
175710  1  0
176711  1  0
203712  1  0
204713  1  0
205714  1  0
206715  1  0
207716  1  0
208717  1  0
209718  1  0
210719  1  0
211720  1  0
212721  1  0
231722  1  0
232723  1  0
233724  1  0
234725  1  0
235726  1  0
236727  1  0
237728  1  0
238729  1  0
239730  1  0
240731  1  0
240732  1  0
241733  1  0
241734  1  0
242735  1  0
243736  1  0
244737  1  0
245738  1  0
265739  1  0
266740  1  0
267741  1  0
268742  1  0
298743  1  0
299744  1  0
300745  1  0
301746  1  0
302747  1  0
303748  1  0
304749  1  0
305750  1  0
306751  1  0
307752  1  0
308753  1  0
309754  1  0
310755  1  0
311756  1  0
312757  1  0
313758  1  0
314759  1  0
315760  1  0
316761  1  0
317762  1  0
323763  1  0
324764  1  0
325765  1  0
326766  1  0
327767  1  0
328768  1  0
329769  1  0
330770  1  0
331771  1  0
332772  1  0
333773  1  0
334774  1  0
335775  1  0
336776  1  0
337777  1  0
338778  1  0
339779  1  0
340780  1  0
341781  1  0
M  END
>  <DATABASE_ID>  (1) 
DB05528

>  <DATABASE_NAME>  (1) 
drugbank

>  <DRUGBANK_ID>  (1) 
DB05528

>  <DRUG_GROUPS>  (1) 
approved

>  <EXACT_MASS>  (1) 
7172.091682609

>  <FORMULA>  (1) 
C230H324N67O122P19S19

>  <GENERIC_NAME>  (1) 
Mipomersen

>  <INCHI_IDENTIFIER>  (1) 
InChI=1S/C230H324N67O122P19S19/c1-97-55-278(217(309)256-177(97)231)141-45-111(122(381-141)70-362-422(325,441)404-116-50-146(283-66-108(12)196(302)275-228(283)320)387-128(116)76-368-427(330,446)410-120-54-150(294-93-253-154-191(294)266-214(243)270-200(154)306)390-130(120)78-370-428(331,447)408-118-52-148(292-91-250-151-186(240)246-89-248-188(151)292)388-131(118)79-371-430(333,449)412-159-134(394-204(169(159)354-37-27-344-17)286-59-101(5)181(235)260-221(286)313)83-375-435(338,454)417-164-138(398-209(174(164)359-42-32-349-22)291-68-110(14)198(304)277-230(291)322)87-377-434(337,453)415-162-136(396-207(172(162)357-40-30-347-20)289-62-104(8)184(238)263-224(289)316)85-376-433(336,452)414-161-133(393-206(171(161)356-39-29-346-19)288-61-103(7)183(237)262-223(288)315)82-374-432(335,451)411-158-121(69-298)391-211(168(158)353-36-26-343-16)296-95-254-155-192(296)267-215(244)271-201(155)307)401-420(323,439)365-74-127-117(51-147(386-127)284-67-109(13)197(303)276-229(284)321)406-425(328,444)369-77-129-119(53-149(389-129)293-92-252-153-190(293)265-213(242)269-199(153)305)409-426(329,445)367-71-123-112(46-142(382-123)279-56-98(2)178(232)257-218(279)310)402-421(324,440)364-73-125-115(49-145(384-125)282-65-107(11)195(301)274-227(282)319)405-424(327,443)366-75-126-114(48-144(385-126)281-64-106(10)194(300)273-226(281)318)403-423(326,442)363-72-124-113(47-143(383-124)280-57-99(3)179(233)258-219(280)311)407-429(332,448)373-81-139-166(176(361-44-34-351-24)212(400-139)297-96-255-156-193(297)268-216(245)272-202(156)308)419-438(341,457)379-86-137-163(173(358-41-31-348-21)208(397-137)290-63-105(9)185(239)264-225(290)317)416-436(339,455)380-88-140-165(175(360-43-33-350-23)210(399-140)295-94-251-152-187(241)247-90-249-189(152)295)418-437(340,456)378-84-135-160(170(355-38-28-345-18)205(395-135)287-60-102(6)182(236)261-222(287)314)413-431(334,450)372-80-132-157(299)167(352-35-25-342-15)203(392-132)285-58-100(4)180(234)259-220(285)312/h55-68,89-96,111-150,157-176,203-212,298-299H,25-54,69-88H2,1-24H3,(H,323,439)(H,324,440)(H,325,441)(H,326,442)(H,327,443)(H,328,444)(H,329,445)(H,330,446)(H,331,447)(H,332,448)(H,333,449)(H,334,450)(H,335,451)(H,336,452)(H,337,453)(H,338,454)(H,339,455)(H,340,456)(H,341,457)(H2,231,256,309)(H2,232,257,310)(H2,233,258,311)(H2,234,259,312)(H2,235,260,313)(H2,236,261,314)(H2,237,262,315)(H2,238,263,316)(H2,239,264,317)(H2,240,246,248)(H2,241,247,249)(H,273,300,318)(H,274,301,319)(H,275,302,320)(H,276,303,321)(H,277,304,322)(H3,242,265,269,305)(H3,243,266,270,306)(H3,244,267,271,307)(H3,245,268,272,308)

>  <INCHI_KEY>  (1) 
XLTMQWVJFPYGMC-UHFFFAOYSA-N

>  <JCHEM_ACCEPTOR_COUNT>  (1) 
140

>  <JCHEM_ATOM_COUNT>  (1) 
781

>  <JCHEM_AVERAGE_POLARIZABILITY>  (1) 
672.0460391314543

>  <JCHEM_BIOAVAILABILITY>  (1) 
0

>  <JCHEM_DONOR_COUNT>  (1) 
58

>  <JCHEM_FORMAL_CHARGE>  (1) 
0

>  <JCHEM_GHOSE_FILTER>  (1) 
0

>  <JCHEM_IUPAC>  (1) 
({2-[({[(2-{[({[2-({[({2-[({[(2-{[({[2-({[({2-[({[(2-{[({[5-(6-amino-9H-purin-9-yl)-2-({[hydroxy({[2-({[hydroxy({[2-({[hydroxy({[2-({[hydroxy({[2-({[hydroxy({[5-(6-hydroxy-2-imino-3,9-dihydro-2H-purin-9-yl)-2-(hydroxymethyl)-4-(2-methoxyethoxy)oxolan-3-yl]oxy})sulfanylidene--phosphanyl]oxy}methyl)-5-(2-hydroxy-4-imino-5-methyl-1,4-dihydropyrimidin-1-yl)-4-(2-methoxyethoxy)oxolan-3-yl]oxy})sulfanylidene--phosphanyl]oxy}methyl)-5-(2-hydroxy-4-imino-5-methyl-1,4-dihydropyrimidin-1-yl)-4-(2-methoxyethoxy)oxolan-3-yl]oxy})sulfanylidene--phosphanyl]oxy}methyl)-5-(4-hydroxy-5-methyl-2-oxo-1,2-dihydropyrimidin-1-yl)-4-(2-methoxyethoxy)oxolan-3-yl]oxy})sulfanylidene--phosphanyl]oxy}methyl)-5-(2-hydroxy-4-imino-5-methyl-1,4-dihydropyrimidin-1-yl)-4-(2-methoxyethoxy)oxolan-3-yl]oxy})sulfanylidene--phosphanyl]oxy}methyl)oxolan-3-yl]oxy}(hydroxy)sulfanylidene--phosphanyl)oxy]methyl}-5-(6-hydroxy-2-imino-3,9-dihydro-2H-purin-9-yl)oxolan-3-yl)oxy](hydroxy)sulfanylidene--phosphanyl}oxy)methyl]-5-(4-hydroxy-5-methyl-2-oxo-1,2-dihydropyrimidin-1-yl)oxolan-3-yl}oxy)(hydroxy)sulfanylidene--phosphanyl]oxy}methyl)-5-(2-hydroxy-4-imino-5-methyl-1,4-dihydropyrimidin-1-yl)oxolan-3-yl]oxy}(hydroxy)sulfanylidene--phosphanyl)oxy]methyl}-5-(4-hydroxy-5-methyl-2-oxo-1,2-dihydropyrimidin-1-yl)oxolan-3-yl)oxy](hydroxy)sulfanylidene--phosphanyl}oxy)methyl]-5-(6-hydroxy-2-imino-3,9-dihydro-2H-purin-9-yl)oxolan-3-yl}oxy)(hydroxy)sulfanylidene--phosphanyl]oxy}methyl)-5-(2-hydroxy-4-imino-5-methyl-1,4-dihydropyrimidin-1-yl)oxolan-3-yl]oxy}(hydroxy)sulfanylidene--phosphanyl)oxy]methyl}-5-(4-hydroxy-5-methyl-2-oxo-1,2-dihydropyrimidin-1-yl)oxolan-3-yl)oxy](hydroxy)sulfanylidene--phosphanyl}oxy)methyl]-5-(4-hydroxy-5-methyl-2-oxo-1,2-dihydropyrimidin-1-yl)oxolan-3-yl}oxy)({[3-({[(3-{[({3-[({[5-(6-amino-9H-purin-9-yl)-3-({hydroxy[(3-{[hydroxy({[3-hydroxy-5-(2-hydroxy-4-imino-5-methyl-1,4-dihydropyrimidin-1-yl)-4-(2-methoxyethoxy)oxolan-2-yl]methoxy})sulfanylidene--phosphanyl]oxy}-5-(2-hydroxy-4-imino-5-methyl-1,4-dihydropyrimidin-1-yl)-4-(2-methoxyethoxy)oxolan-2-yl)methoxy]sulfanylidene--phosphanyl}oxy)-4-(2-methoxyethoxy)oxolan-2-yl]methoxy}(hydroxy)sulfanylidene--phosphanyl)oxy]-5-(2-hydroxy-4-imino-5-methyl-1,4-dihydropyrimidin-1-yl)-4-(2-methoxyethoxy)oxolan-2-yl}methoxy)(hydroxy)sulfanylidene--phosphanyl]oxy}-5-(6-hydroxy-2-imino-3,9-dihydro-2H-purin-9-yl)-4-(2-methoxyethoxy)oxolan-2-yl)methoxy](hydroxy)sulfanylidene--phosphanyl}oxy)-5-(2-hydroxy-4-imino-5-methyl-1,4-dihydropyrimidin-1-yl)oxolan-2-yl]methoxy})sulfanylidenephosphinous acid

>  <JCHEM_LOGP>  (1) 
13.265050390333315

>  <JCHEM_MDDR_LIKE_RULE>  (1) 
1

>  <JCHEM_NUMBER_OF_RINGS>  (1) 
46

>  <JCHEM_PHYSIOLOGICAL_CHARGE>  (1) 
-13

>  <JCHEM_PKA>  (1) 
1.4171382675203894

>  <JCHEM_PKA_STRONGEST_ACIDIC>  (1) 
1.0558696727202683

>  <JCHEM_POLAR_SURFACE_AREA>  (1) 
2430.7900000000013

>  <JCHEM_REFRACTIVITY>  (1) 
1775.7027999999993

>  <JCHEM_ROTATABLE_BOND_COUNT>  (1) 
156

>  <JCHEM_RULE_OF_FIVE>  (1) 
0

>  <JCHEM_TRADITIONAL_IUPAC>  (1) 
{2-[({[(2-{[({[2-({[({2-[({[(2-{[({[2-({[({2-[({[(2-{[({[5-(6-aminopurin-9-yl)-2-({[hydroxy({[2-({[hydroxy({[2-({[hydroxy({[2-({[hydroxy({[2-({[hydroxy({[5-(6-hydroxy-2-imino-3H-purin-9-yl)-2-(hydroxymethyl)-4-(2-methoxyethoxy)oxolan-3-yl]oxy})sulfanylidene--phosphanyl]oxy}methyl)-5-(2-hydroxy-4-imino-5-methylpyrimidin-1-yl)-4-(2-methoxyethoxy)oxolan-3-yl]oxy})sulfanylidene--phosphanyl]oxy}methyl)-5-(2-hydroxy-4-imino-5-methylpyrimidin-1-yl)-4-(2-methoxyethoxy)oxolan-3-yl]oxy})sulfanylidene--phosphanyl]oxy}methyl)-5-(4-hydroxy-5-methyl-2-oxopyrimidin-1-yl)-4-(2-methoxyethoxy)oxolan-3-yl]oxy})sulfanylidene--phosphanyl]oxy}methyl)-5-(2-hydroxy-4-imino-5-methylpyrimidin-1-yl)-4-(2-methoxyethoxy)oxolan-3-yl]oxy})sulfanylidene--phosphanyl]oxy}methyl)oxolan-3-yl]oxy}(hydroxy)sulfanylidene--phosphanyl)oxy]methyl}-5-(6-hydroxy-2-imino-3H-purin-9-yl)oxolan-3-yl)oxy](hydroxy)sulfanylidene--phosphanyl}oxy)methyl]-5-(4-hydroxy-5-methyl-2-oxopyrimidin-1-yl)oxolan-3-yl}oxy)(hydroxy)sulfanylidene--phosphanyl]oxy}methyl)-5-(2-hydroxy-4-imino-5-methylpyrimidin-1-yl)oxolan-3-yl]oxy}(hydroxy)sulfanylidene--phosphanyl)oxy]methyl}-5-(4-hydroxy-5-methyl-2-oxopyrimidin-1-yl)oxolan-3-yl)oxy](hydroxy)sulfanylidene--phosphanyl}oxy)methyl]-5-(6-hydroxy-2-imino-3H-purin-9-yl)oxolan-3-yl}oxy)(hydroxy)sulfanylidene--phosphanyl]oxy}methyl)-5-(2-hydroxy-4-imino-5-methylpyrimidin-1-yl)oxolan-3-yl]oxy}(hydroxy)sulfanylidene--phosphanyl)oxy]methyl}-5-(4-hydroxy-5-methyl-2-oxopyrimidin-1-yl)oxolan-3-yl)oxy](hydroxy)sulfanylidene--phosphanyl}oxy)methyl]-5-(4-hydroxy-5-methyl-2-oxopyrimidin-1-yl)oxolan-3-yl}oxy([3-({[(3-{[({3-[({[5-(6-aminopurin-9-yl)-3-({hydroxy[(3-{[hydroxy({[3-hydroxy-5-(2-hydroxy-4-imino-5-methylpyrimidin-1-yl)-4-(2-methoxyethoxy)oxolan-2-yl]methoxy})sulfanylidene--phosphanyl]oxy}-5-(2-hydroxy-4-imino-5-methylpyrimidin-1-yl)-4-(2-methoxyethoxy)oxolan-2-yl)methoxy]sulfanylidene--phosphanyl}oxy)-4-(2-methoxyethoxy)oxolan-2-yl]methoxy}(hydroxy)sulfanylidene--phosphanyl)oxy]-5-(2-hydroxy-4-imino-5-methylpyrimidin-1-yl)-4-(2-methoxyethoxy)oxolan-2-yl}methoxy)(hydroxy)sulfanylidene--phosphanyl]oxy}-5-(6-hydroxy-2-imino-3H-purin-9-yl)-4-(2-methoxyethoxy)oxolan-2-yl)methoxy](hydroxy)sulfanylidene--phosphanyl}oxy)-5-(2-hydroxy-4-imino-5-methylpyrimidin-1-yl)oxolan-2-yl]methoxy)sulfanylidenephosphinous acid

>  <JCHEM_VEBER_RULE>  (1) 
0

>  <MOLECULAR_WEIGHT>  (1) 
7177.11

>  <PRODUCTS>  (1) 
Kynamro

>  <SALTS>  (1) 
Mipomersen sodium

>  <SMILES>  (1) 
[H]C1(CC([H])(OP(O)(=S)OCC2([H])OC([H])(CC2([H])OP(O)(=S)OCC2([H])OC([H])(CC2([H])OP(O)(=S)OCC2([H])OC([H])(CC2([H])OP(O)(=S)OCC2([H])OC([H])(CC2([H])OP(O)(=S)OCC2([H])OC([H])(CC2([H])OP(O)(=S)OCC2([H])OC([H])(CC2([H])OP(O)(=S)OCC2([H])OC([H])(CC2([H])OP(O)(=S)OCC2([H])OC([H])(CC2([H])OP(O)(=S)OCC2([H])OC([H])(N3C=NC4=C3NC(=N)N=C4O)C([H])(OCCOC)C2([H])OP(O)(=S)OCC2([H])OC([H])(N3C=C(C)C(=N)N=C3O)C([H])(OCCOC)C2([H])OP(O)(=S)OCC2([H])OC([H])(N3C=NC4=C(N)N=CN=C34)C([H])(OCCOC)C2([H])OP(O)(=S)OCC2([H])OC([H])(N3C=C(C)C(=N)N=C3O)C([H])(OCCOC)C2([H])OP(O)(=S)OCC2([H])OC([H])(N3C=C(C)C(=N)N=C3O)C([H])(OCCOC)C2([H])O)N2C=C(C)C(=N)N=C2O)N2C=C(C)C(O)=NC2=O)N2C=C(C)C(O)=NC2=O)N2C=C(C)C(=N)N=C2O)N2C=NC3=C2NC(=N)N=C3O)N2C=C(C)C(O)=NC2=O)N2C=C(C)C(=N)N=C2O)N2C=C(C)C(O)=NC2=O)C([H])(COP(O)(=S)OC2([H])CC([H])(OC2([H])COP(O)(=S)OC2([H])C([H])(COP(O)(=S)OC3([H])C([H])(COP(O)(=S)OC4([H])C([H])(COP(O)(=S)OC5([H])C([H])(COP(O)(=S)OC6([H])C([H])(CO)OC([H])(N7C=NC8=C7NC(=N)N=C8O)C6([H])OCCOC)OC([H])(N6C=C(C)C(=N)N=C6O)C5([H])OCCOC)OC([H])(N5C=C(C)C(=N)N=C5O)C4([H])OCCOC)OC([H])(N4C=C(C)C(O)=NC4=O)C3([H])OCCOC)OC([H])(N3C=C(C)C(=N)N=C3O)C2([H])OCCOC)N2C=NC3=C(N)N=CN=C23)O1)N1C=NC2=C1NC(=N)N=C2O

$$$$
