
     RDKit          2D

198203  0  0  1  0  0  0  0  0999 V2000
    3.0261    0.6252    0.0000 C   0  0  0  0  0  0  0  0  0  0  0  0
    1.8042   -4.1841    0.0000 C   0  0  0  0  0  0  0  0  0  0  0  0
    0.7423   -5.1402    0.0000 C   0  0  0  0  0  0  0  0  0  0  0  0
    2.6136   -0.0892    0.0000 C   0  0  0  0  0  0  0  0  0  0  0  0
   -3.6738   -6.8182    0.0000 C   0  0  0  0  0  0  0  0  0  0  0  0
   -2.8669   -6.9897    0.0000 C   0  0  0  0  0  0  0  0  0  0  0  0
   -3.9288   -6.0335    0.0000 C   0  0  0  0  0  0  0  0  0  0  0  0
    3.8492    4.8001    0.0000 C   0  0  0  0  0  0  0  0  0  0  0  0
    3.8492    5.6251    0.0000 C   0  0  0  0  0  0  0  0  0  0  0  0
    3.1632   -4.6257    0.0000 C   0  0  0  0  0  0  0  0  0  0  0  0
    5.2556   -2.4113    0.0000 C   0  0  0  0  0  0  0  0  0  0  0  0
   -2.3148   -6.3766    0.0000 C   0  0  0  0  0  0  0  0  0  0  0  0
   -3.3767   -5.4205    0.0000 C   0  0  0  0  0  0  0  0  0  0  0  0
    3.1347    4.3876    0.0000 C   0  0  0  0  0  0  0  0  0  0  0  0
    3.1347    6.0376    0.0000 C   0  0  0  0  0  0  0  0  0  0  0  0
    3.4182   -3.8410    0.0000 C   0  0  0  0  0  0  0  0  0  0  0  0
    5.0841   -1.6044    0.0000 C   0  0  0  0  0  0  0  0  0  0  0  0
   -3.1640    1.3337    0.0000 C   0  0  0  0  0  0  0  0  0  0  0  0
   -2.8669   -0.0640    0.0000 C   0  0  0  0  0  0  0  0  0  0  0  0
   -3.9709    1.1621    0.0000 C   0  0  0  0  0  0  0  0  0  0  0  0
   -3.6738   -0.2355    0.0000 C   0  0  0  0  0  0  0  0  0  0  0  0
   -3.5417    2.7623    0.0000 C   0  0  0  0  0  0  0  0  0  0  0  0
   -4.3621    2.8486    0.0000 C   0  0  0  0  0  0  0  0  0  0  0  0
    3.7153   -5.2387    0.0000 C   0  0  0  0  0  0  0  0  0  0  0  0
    4.5412   -2.8238    0.0000 C   0  0  0  0  0  0  0  0  0  0  0  0
    0.4452   -3.7425    0.0000 C   0  0  0  0  0  0  0  0  0  0  0  0
   -1.8049    0.8921    0.0000 C   0  0  0  0  0  0  0  0  0  0  0  0
    1.3807    3.7605    0.0000 C   0  0  0  0  0  0  0  0  0  0  0  0
   -1.0823    5.4283    0.0000 C   0  0  0  0  0  0  0  0  0  0  0  0
   -2.0177   -2.0748    0.0000 C   0  0  0  0  0  0  0  0  0  0  0  0
    1.1507    5.2126    0.0000 C   0  0  0  0  0  0  0  0  0  0  0  0
   -2.4548    5.9552    0.0000 C   0  0  0  0  0  0  0  0  0  0  0  0
   -2.0177   -4.9789    0.0000 C   0  0  0  0  0  0  0  0  0  0  0  0
   -1.7877   -3.5268    0.0000 C   0  0  0  0  0  0  0  0  0  0  0  0
    1.1679    0.7936    0.0000 C   0  0  0  0  0  0  0  0  0  0  0  0
   -2.1773    7.2609    0.0000 C   0  0  0  0  0  0  0  0  0  0  0  0
   -3.0573   -3.9393    0.0000 C   0  0  0  0  0  0  0  0  0  0  0  0
    0.9973   -4.3556    0.0000 C   0  0  0  0  0  0  0  0  0  0  0  0
   -2.6119    0.7206    0.0000 C   0  0  0  0  0  0  0  0  0  0  0  0
   -2.5698   -5.5920    0.0000 C   0  0  0  0  0  0  0  0  0  0  0  0
    1.6356    4.5452    0.0000 C   0  0  0  0  0  0  0  0  0  0  0  0
   -1.6343    6.0414    0.0000 C   0  0  0  0  0  0  0  0  0  0  0  0
   -2.2727   -2.8594    0.0000 C   0  0  0  0  0  0  0  0  0  0  0  0
   -4.2259    0.3775    0.0000 C   0  0  0  0  0  0  0  0  0  0  0  0
    2.4202    4.8001    0.0000 C   0  0  0  0  0  0  0  0  0  0  0  0
    2.4202    5.6251    0.0000 C   0  0  0  0  0  0  0  0  0  0  0  0
   -3.2061    3.5160    0.0000 C   0  0  0  0  0  0  0  0  0  0  0  0
    2.8662   -3.2279    0.0000 C   0  0  0  0  0  0  0  0  0  0  0  0
    0.7002   -2.9579    0.0000 C   0  0  0  0  0  0  0  0  0  0  0  0
   -1.2529    0.2790    0.0000 C   0  0  0  0  0  0  0  0  0  0  0  0
    0.5737    3.5890    0.0000 C   0  0  0  0  0  0  0  0  0  0  0  0
   -1.3372    4.6437    0.0000 C   0  0  0  0  0  0  0  0  0  0  0  0
   -1.2108   -1.9032    0.0000 C   0  0  0  0  0  0  0  0  0  0  0  0
    0.6159    1.4067    0.0000 C   0  0  0  0  0  0  0  0  0  0  0  0
    4.2636   -1.5181    0.0000 C   0  0  0  0  0  0  0  0  0  0  0  0
   -4.5337    3.6555    0.0000 C   0  0  0  0  0  0  0  0  0  0  0  0
   -2.3991    3.6875    0.0000 C   0  0  0  0  0  0  0  0  0  0  0  0
    1.5072   -2.7864    0.0000 C   0  0  0  0  0  0  0  0  0  0  0  0
   -1.5079   -0.5055    0.0000 C   0  0  0  0  0  0  0  0  0  0  0  0
    0.3188    2.8044    0.0000 C   0  0  0  0  0  0  0  0  0  0  0  0
   -0.7852    4.0306    0.0000 C   0  0  0  0  0  0  0  0  0  0  0  0
   -0.6587   -2.5163    0.0000 C   0  0  0  0  0  0  0  0  0  0  0  0
   -0.1910    1.2351    0.0000 C   0  0  0  0  0  0  0  0  0  0  0  0
    3.8511   -0.8036    0.0000 C   0  0  0  0  0  0  0  0  0  0  0  0
    3.1211   -2.4433    0.0000 C   0  0  0  0  0  0  0  0  0  0  0  0
    4.0124   -6.6365    0.0000 C   0  0  0  0  0  0  0  0  0  0  0  0
    4.8193   -6.4649    0.0000 N   0  0  0  0  0  0  0  0  0  0  0  0
    3.7574   -7.4211    0.0000 N   0  0  0  0  0  0  0  0  0  0  0  0
   -2.7904    6.7088    0.0000 N   0  0  0  0  0  0  0  0  0  0  0  0
    3.0261   -0.8036    0.0000 N   0  0  0  0  0  0  0  0  0  0  0  0
    3.4603   -6.0234    0.0000 N   0  0  0  0  0  0  0  0  0  0  0  0
    1.6356    5.8800    0.0000 N   0  0  0  0  0  0  0  0  0  0  0  0
   -1.4628    6.8484    0.0000 N   0  0  0  0  0  0  0  0  0  0  0  0
   -3.0573   -3.1143    0.0000 N   0  0  0  0  0  0  0  0  0  0  0  0
   -3.8192    4.0680    0.0000 N   0  0  0  0  0  0  0  0  0  0  0  0
    2.0592   -3.3995    0.0000 N   0  0  0  0  0  0  0  0  0  0  0  0
    0.1481   -2.3448    0.0000 N   0  0  0  0  0  0  0  0  0  0  0  0
   -0.4459    0.4505    0.0000 N   0  0  0  0  0  0  0  0  0  0  0  0
    0.0217    4.2021    0.0000 N   0  0  0  0  0  0  0  0  0  0  0  0
   -2.1442    4.4721    0.0000 N   0  0  0  0  0  0  0  0  0  0  0  0
   -0.9558   -1.1186    0.0000 N   0  0  0  0  0  0  0  0  0  0  0  0
    0.8708    2.1913    0.0000 N   0  0  0  0  0  0  0  0  0  0  0  0
   -2.2727   -4.1943    0.0000 N   0  0  0  0  0  0  0  0  0  0  0  0
    3.9281   -2.2718    0.0000 N   0  0  0  0  0  0  0  0  0  0  0  0
    1.9749    0.9651    0.0000 O   0  0  0  0  0  0  0  0  0  0  0  0
   -5.0328    0.2060    0.0000 O   0  0  0  0  0  0  0  0  0  0  0  0
   -5.2873    3.9911    0.0000 O   0  0  0  0  0  0  0  0  0  0  0  0
   -1.8471    3.0744    0.0000 O   0  0  0  0  0  0  0  0  0  0  0  0
    1.7621   -2.0017    0.0000 O   0  0  0  0  0  0  0  0  0  0  0  0
   -2.3148   -0.6770    0.0000 O   0  0  0  0  0  0  0  0  0  0  0  0
   -0.4881    2.6329    0.0000 O   0  0  0  0  0  0  0  0  0  0  0  0
   -1.0401    3.2460    0.0000 O   0  0  0  0  0  0  0  0  0  0  0  0
   -0.9137   -3.3010    0.0000 O   0  0  0  0  0  0  0  0  0  0  0  0
   -0.7430    1.8482    0.0000 O   0  0  0  0  0  0  0  0  0  0  0  0
    4.2636   -0.0892    0.0000 O   0  0  0  0  0  0  0  0  0  0  0  0
    2.5691   -1.8302    0.0000 O   0  0  0  0  0  0  0  0  0  0  0  0
    8.3788    0.7144    0.0000 C   0  0  0  0  0  0  0  0  0  0  0  0
    7.9663    0.0000    0.0000 C   0  0  0  0  0  0  0  0  0  0  0  0
    8.3788   -0.7144    0.0000 O   0  0  0  0  0  0  0  0  0  0  0  0
    7.1413    0.0000    0.0000 O   0  0  0  0  0  0  0  0  0  0  0  0
    0.4125   -9.0711    0.0000 C   0  0  0  0  0  0  0  0  0  0  0  0
    0.0000   -9.7856    0.0000 C   0  0  0  0  0  0  0  0  0  0  0  0
    0.4125  -10.5000    0.0000 O   0  0  0  0  0  0  0  0  0  0  0  0
   -0.8250   -9.7856    0.0000 O   0  0  0  0  0  0  0  0  0  0  0  0
    0.0000    0.0000    0.0000 H   0  0  0  0  0  0  0  0  0  0  0  0
    0.0000    0.0000    0.0000 H   0  0  0  0  0  0  0  0  0  0  0  0
    0.0000    0.0000    0.0000 H   0  0  0  0  0  0  0  0  0  0  0  0
    0.0000    0.0000    0.0000 H   0  0  0  0  0  0  0  0  0  0  0  0
    0.0000    0.0000    0.0000 H   0  0  0  0  0  0  0  0  0  0  0  0
    0.0000    0.0000    0.0000 H   0  0  0  0  0  0  0  0  0  0  0  0
    0.0000    0.0000    0.0000 H   0  0  0  0  0  0  0  0  0  0  0  0
    0.0000    0.0000    0.0000 H   0  0  0  0  0  0  0  0  0  0  0  0
    0.0000    0.0000    0.0000 H   0  0  0  0  0  0  0  0  0  0  0  0
    0.0000    0.0000    0.0000 H   0  0  0  0  0  0  0  0  0  0  0  0
    0.0000    0.0000    0.0000 H   0  0  0  0  0  0  0  0  0  0  0  0
    0.0000    0.0000    0.0000 H   0  0  0  0  0  0  0  0  0  0  0  0
    0.0000    0.0000    0.0000 H   0  0  0  0  0  0  0  0  0  0  0  0
    0.0000    0.0000    0.0000 H   0  0  0  0  0  0  0  0  0  0  0  0
    0.0000    0.0000    0.0000 H   0  0  0  0  0  0  0  0  0  0  0  0
    0.0000    0.0000    0.0000 H   0  0  0  0  0  0  0  0  0  0  0  0
    0.0000    0.0000    0.0000 H   0  0  0  0  0  0  0  0  0  0  0  0
    0.0000    0.0000    0.0000 H   0  0  0  0  0  0  0  0  0  0  0  0
    0.0000    0.0000    0.0000 H   0  0  0  0  0  0  0  0  0  0  0  0
    0.0000    0.0000    0.0000 H   0  0  0  0  0  0  0  0  0  0  0  0
    0.0000    0.0000    0.0000 H   0  0  0  0  0  0  0  0  0  0  0  0
    0.0000    0.0000    0.0000 H   0  0  0  0  0  0  0  0  0  0  0  0
    0.0000    0.0000    0.0000 H   0  0  0  0  0  0  0  0  0  0  0  0
    0.0000    0.0000    0.0000 H   0  0  0  0  0  0  0  0  0  0  0  0
    0.0000    0.0000    0.0000 H   0  0  0  0  0  0  0  0  0  0  0  0
    0.0000    0.0000    0.0000 H   0  0  0  0  0  0  0  0  0  0  0  0
    0.0000    0.0000    0.0000 H   0  0  0  0  0  0  0  0  0  0  0  0
    0.0000    0.0000    0.0000 H   0  0  0  0  0  0  0  0  0  0  0  0
    0.0000    0.0000    0.0000 H   0  0  0  0  0  0  0  0  0  0  0  0
    0.0000    0.0000    0.0000 H   0  0  0  0  0  0  0  0  0  0  0  0
    0.0000    0.0000    0.0000 H   0  0  0  0  0  0  0  0  0  0  0  0
    0.0000    0.0000    0.0000 H   0  0  0  0  0  0  0  0  0  0  0  0
    0.0000    0.0000    0.0000 H   0  0  0  0  0  0  0  0  0  0  0  0
    0.0000    0.0000    0.0000 H   0  0  0  0  0  0  0  0  0  0  0  0
    0.0000    0.0000    0.0000 H   0  0  0  0  0  0  0  0  0  0  0  0
    0.0000    0.0000    0.0000 H   0  0  0  0  0  0  0  0  0  0  0  0
    0.0000    0.0000    0.0000 H   0  0  0  0  0  0  0  0  0  0  0  0
    0.0000    0.0000    0.0000 H   0  0  0  0  0  0  0  0  0  0  0  0
    0.0000    0.0000    0.0000 H   0  0  0  0  0  0  0  0  0  0  0  0
    0.0000    0.0000    0.0000 H   0  0  0  0  0  0  0  0  0  0  0  0
    0.0000    0.0000    0.0000 H   0  0  0  0  0  0  0  0  0  0  0  0
    0.0000    0.0000    0.0000 H   0  0  0  0  0  0  0  0  0  0  0  0
    0.0000    0.0000    0.0000 H   0  0  0  0  0  0  0  0  0  0  0  0
    0.0000    0.0000    0.0000 H   0  0  0  0  0  0  0  0  0  0  0  0
    0.0000    0.0000    0.0000 H   0  0  0  0  0  0  0  0  0  0  0  0
    0.0000    0.0000    0.0000 H   0  0  0  0  0  0  0  0  0  0  0  0
    0.0000    0.0000    0.0000 H   0  0  0  0  0  0  0  0  0  0  0  0
    0.0000    0.0000    0.0000 H   0  0  0  0  0  0  0  0  0  0  0  0
    0.0000    0.0000    0.0000 H   0  0  0  0  0  0  0  0  0  0  0  0
    0.0000    0.0000    0.0000 H   0  0  0  0  0  0  0  0  0  0  0  0
    0.0000    0.0000    0.0000 H   0  0  0  0  0  0  0  0  0  0  0  0
    0.0000    0.0000    0.0000 H   0  0  0  0  0  0  0  0  0  0  0  0
    0.0000    0.0000    0.0000 H   0  0  0  0  0  0  0  0  0  0  0  0
    0.0000    0.0000    0.0000 H   0  0  0  0  0  0  0  0  0  0  0  0
    0.0000    0.0000    0.0000 H   0  0  0  0  0  0  0  0  0  0  0  0
    0.0000    0.0000    0.0000 H   0  0  0  0  0  0  0  0  0  0  0  0
    0.0000    0.0000    0.0000 H   0  0  0  0  0  0  0  0  0  0  0  0
    0.0000    0.0000    0.0000 H   0  0  0  0  0  0  0  0  0  0  0  0
    0.0000    0.0000    0.0000 H   0  0  0  0  0  0  0  0  0  0  0  0
    0.0000    0.0000    0.0000 H   0  0  0  0  0  0  0  0  0  0  0  0
    0.0000    0.0000    0.0000 H   0  0  0  0  0  0  0  0  0  0  0  0
    0.0000    0.0000    0.0000 H   0  0  0  0  0  0  0  0  0  0  0  0
    0.0000    0.0000    0.0000 H   0  0  0  0  0  0  0  0  0  0  0  0
    0.0000    0.0000    0.0000 H   0  0  0  0  0  0  0  0  0  0  0  0
    0.0000    0.0000    0.0000 H   0  0  0  0  0  0  0  0  0  0  0  0
    0.0000    0.0000    0.0000 H   0  0  0  0  0  0  0  0  0  0  0  0
    0.0000    0.0000    0.0000 H   0  0  0  0  0  0  0  0  0  0  0  0
    0.0000    0.0000    0.0000 H   0  0  0  0  0  0  0  0  0  0  0  0
    0.0000    0.0000    0.0000 H   0  0  0  0  0  0  0  0  0  0  0  0
    0.0000    0.0000    0.0000 H   0  0  0  0  0  0  0  0  0  0  0  0
    0.0000    0.0000    0.0000 H   0  0  0  0  0  0  0  0  0  0  0  0
    0.0000    0.0000    0.0000 H   0  0  0  0  0  0  0  0  0  0  0  0
    0.0000    0.0000    0.0000 H   0  0  0  0  0  0  0  0  0  0  0  0
    0.0000    0.0000    0.0000 H   0  0  0  0  0  0  0  0  0  0  0  0
    0.0000    0.0000    0.0000 H   0  0  0  0  0  0  0  0  0  0  0  0
    0.0000    0.0000    0.0000 H   0  0  0  0  0  0  0  0  0  0  0  0
    0.0000    0.0000    0.0000 H   0  0  0  0  0  0  0  0  0  0  0  0
    0.0000    0.0000    0.0000 H   0  0  0  0  0  0  0  0  0  0  0  0
    0.0000    0.0000    0.0000 H   0  0  0  0  0  0  0  0  0  0  0  0
    0.0000    0.0000    0.0000 H   0  0  0  0  0  0  0  0  0  0  0  0
    0.0000    0.0000    0.0000 H   0  0  0  0  0  0  0  0  0  0  0  0
    0.0000    0.0000    0.0000 H   0  0  0  0  0  0  0  0  0  0  0  0
    0.0000    0.0000    0.0000 H   0  0  0  0  0  0  0  0  0  0  0  0
    0.0000    0.0000    0.0000 H   0  0  0  0  0  0  0  0  0  0  0  0
    0.0000    0.0000    0.0000 H   0  0  0  0  0  0  0  0  0  0  0  0
    0.0000    0.0000    0.0000 H   0  0  0  0  0  0  0  0  0  0  0  0
    0.0000    0.0000    0.0000 H   0  0  0  0  0  0  0  0  0  0  0  0
    0.0000    0.0000    0.0000 H   0  0  0  0  0  0  0  0  0  0  0  0
    0.0000    0.0000    0.0000 H   0  0  0  0  0  0  0  0  0  0  0  0
    0.0000    0.0000    0.0000 H   0  0  0  0  0  0  0  0  0  0  0  0
    0.0000    0.0000    0.0000 H   0  0  0  0  0  0  0  0  0  0  0  0
    0.0000    0.0000    0.0000 H   0  0  0  0  0  0  0  0  0  0  0  0
    0.0000    0.0000    0.0000 H   0  0  0  0  0  0  0  0  0  0  0  0
    0.0000    0.0000    0.0000 H   0  0  0  0  0  0  0  0  0  0  0  0
  4  1  1  0
  6  5  2  0
  7  5  1  0
  9  8  2  0
 12  6  1  0
 13  7  2  0
 14  8  1  0
 15  9  1  0
 16 10  1  0
 17 11  1  0
 20 18  2  0
 21 19  1  0
 23 22  1  0
 24 10  1  0
 25 11  1  0
 38  2  1  0
 38  3  1  0
 38 26  1  0
 39 18  1  0
 39 19  2  0
 39 27  1  0
 40 12  2  0
 40 13  1  0
 40 33  1  0
 41 28  1  0
 41 31  2  0
 42 29  1  0
 42 32  2  0
 43 30  1  0
 43 34  2  0
 44 20  1  0
 44 21  2  0
 45 14  2  0
 45 41  1  0
 46 15  2  0
 46 45  1  0
 47 22  1  0
 48 16  1  1
 49 26  1  1
 50 27  1  1
 51 28  1  1
 52 29  1  6
 53 30  1  6
 54 35  1  1
 55 17  1  0
 56 23  1  0
 47 57  1  6
 58 49  1  0
 59 50  1  0
 60 51  1  0
 61 52  1  0
 62 53  1  0
 63 54  1  0
 55 64  1  6
 65 48  1  0
 67 66  2  3
 68 66  1  0
 69 32  1  0
 69 36  2  0
 70  4  1  0
 70 64  2  3
 71 24  1  0
 71 66  1  0
 72 31  1  0
 72 46  1  0
 73 36  1  0
 73 42  1  0
 74 37  2  0
 74 43  1  0
 75 47  1  0
 75 56  2  0
 48 76  1  0
 76 58  2  3
 49 77  1  0
 77 62  2  3
 50 78  1  0
 78 63  2  3
 51 79  1  0
 79 61  2  3
 52 80  1  0
 80 57  2  3
 53 81  1  0
 81 59  2  3
 54 82  1  0
 82 60  2  3
 83 33  1  0
 83 34  1  0
 83 37  1  0
 84 25  1  0
 84 55  1  0
 84 65  1  0
 85 35  1  0
 86 44  1  0
 87 56  1  0
 57 88  1  0
 58 89  1  0
 59 90  1  0
 60 91  1  0
 61 92  1  0
 62 93  1  0
 63 94  1  0
 95 64  1  0
 96 65  2  0
 98 97  1  0
 99 98  2  0
100 98  1  0
102101  1  0
103102  2  0
104102  1  0
  1105  1  0
  1106  1  0
  1107  1  0
  2108  1  0
  2109  1  0
  2110  1  0
  3111  1  0
  3112  1  0
  3113  1  0
  4114  1  0
  4115  1  0
  5116  1  0
  6117  1  0
  7118  1  0
  8119  1  0
  9120  1  0
 10121  1  0
 10122  1  0
 11123  1  0
 11124  1  0
 12125  1  0
 13126  1  0
 14127  1  0
 15128  1  0
 16129  1  0
 16130  1  0
 17131  1  0
 17132  1  0
 18133  1  0
 19134  1  0
 20135  1  0
 21136  1  0
 22137  1  0
 22138  1  0
 23139  1  0
 23140  1  0
 24141  1  0
 24142  1  0
 25143  1  0
 25144  1  0
 26145  1  0
 26146  1  0
 27147  1  0
 27148  1  0
 28149  1  0
 28150  1  0
 29151  1  0
 29152  1  0
 30153  1  0
 30154  1  0
 31155  1  0
 32156  1  0
 33157  1  0
 33158  1  0
 34159  1  0
 35160  1  0
 35161  1  0
 36162  1  0
 37163  1  0
 38164  1  0
 47165  1  0
 48166  1  0
 49167  1  0
 50168  1  0
 51169  1  0
 52170  1  0
 53171  1  0
 54172  1  0
 55173  1  0
 67174  1  0
 68175  1  0
 68176  1  0
 71177  1  0
 72178  1  0
 73179  1  0
 85180  1  0
 86181  1  0
 87182  1  0
 88183  1  0
 89184  1  0
 90185  1  0
 91186  1  0
 92187  1  0
 93188  1  0
 94189  1  0
 95190  1  0
 97191  1  0
 97192  1  0
 97193  1  0
100194  1  0
101195  1  0
101196  1  0
101197  1  0
104198  1  0
M  END
>  <ALOGPS_LOGP>  (1) 
2.21

>  <ALOGPS_LOGS>  (1) 
-3.91

>  <ALOGPS_SOLUBILITY>  (1) 
1.62e-01 g/l

>  <DATABASE_ID>  (1) 
DB06788

>  <DATABASE_NAME>  (1) 
drugbank

>  <DRUGBANK_ID>  (1) 
DB06788

>  <DRUG_GROUPS>  (1) 
approved

>  <EXACT_MASS>  (1) 
1442.709519019

>  <FORMULA>  (1) 
C70H94N18O16

>  <GENERIC_NAME>  (1) 
Histrelin

>  <INCHI_IDENTIFIER>  (1) 
InChI=1S/C66H86N18O12.2C2H4O2/c1-4-70-64(95)55-17-11-25-84(55)65(96)48(16-10-24-71-66(67)68)76-58(89)49(26-38(2)3)77-62(93)53(30-43-34-83(37-74-43)33-40-12-6-5-7-13-40)81-59(90)50(27-39-18-20-44(86)21-19-39)78-63(94)54(35-85)82-60(91)51(28-41-31-72-46-15-9-8-14-45(41)46)79-61(92)52(29-42-32-69-36-73-42)80-57(88)47-22-23-56(87)75-47;2*1-2(3)4/h5-9,12-15,18-21,31-32,34,36-38,47-55,72,85-86H,4,10-11,16-17,22-30,33,35H2,1-3H3,(H,69,73)(H,70,95)(H,75,87)(H,76,89)(H,77,93)(H,78,94)(H,79,92)(H,80,88)(H,81,90)(H,82,91)(H4,67,68,71);2*1H3,(H,3,4)/t47-,48-,49-,50-,51-,52-,53+,54-,55-;;/m0../s1

>  <INCHI_KEY>  (1) 
BKEMVGVBBDMHKL-VYFXDUNUSA-N

>  <JCHEM_ACCEPTOR_COUNT>  (1) 
26

>  <JCHEM_ATOM_COUNT>  (1) 
198

>  <JCHEM_AVERAGE_POLARIZABILITY>  (1) 
139.2309685200792

>  <JCHEM_BIOAVAILABILITY>  (1) 
0

>  <JCHEM_DONOR_COUNT>  (1) 
16

>  <JCHEM_FORMAL_CHARGE>  (1) 
0

>  <JCHEM_GHOSE_FILTER>  (1) 
0

>  <JCHEM_IUPAC>  (1) 
(2S)-1-[(2S)-2-{[(2S)-2-{[(2R)-3-(1-benzyl-1H-imidazol-4-yl)-2-{[(2S)-2-{[(2S)-1,3-dihydroxy-2-{[(2S)-1-hydroxy-2-{[(2S)-1-hydroxy-2-({hydroxy[(2S)-5-hydroxy-3,4-dihydro-2H-pyrrol-2-yl]methylidene}amino)-3-(1H-imidazol-5-yl)propylidene]amino}-3-(1H-indol-3-yl)propylidene]amino}propylidene]amino}-1-hydroxy-3-(4-hydroxyphenyl)propylidene]amino}-1-hydroxypropylidene]amino}-1-hydroxy-4-methylpentylidene]amino}-5-carbamimidamidopentanoyl]-N-ethylpyrrolidine-2-carboximidic acid; bis(acetic acid)

>  <JCHEM_LOGP>  (1) 
3.386292972182855

>  <JCHEM_MDDR_LIKE_RULE>  (1) 
1

>  <JCHEM_NUMBER_OF_RINGS>  (1) 
8

>  <JCHEM_PHYSIOLOGICAL_CHARGE>  (1) 
1

>  <JCHEM_PKA>  (1) 
3.1567273463705754

>  <JCHEM_PKA_STRONGEST_ACIDIC>  (1) 
2.7143097511462067

>  <JCHEM_PKA_STRONGEST_BASIC>  (1) 
11.89523949751846

>  <JCHEM_POLAR_SURFACE_AREA>  (1) 
478.2700000000003

>  <JCHEM_REFRACTIVITY>  (1) 
365.33439999999985

>  <JCHEM_ROTATABLE_BOND_COUNT>  (1) 
34

>  <JCHEM_RULE_OF_FIVE>  (1) 
0

>  <JCHEM_TRADITIONAL_IUPAC>  (1) 
bis(acetic acid); histrelin

>  <JCHEM_VEBER_RULE>  (1) 
0

>  <MOLECULAR_WEIGHT>  (1) 
1443.632

>  <PRODUCTS>  (1) 
Supprelin LA; Vantas

>  <SALTS>  (1) 
Histrelin acetate

>  <SMILES>  (1) 
CC(O)=O.CC(O)=O.[H][C@@](CO)(N=C(O)[C@]([H])(CC1=CNC2=CC=CC=C12)N=C(O)[C@]([H])(CC1=CN=CN1)N=C(O)[C@]1([H])CCC(O)=N1)C(O)=N[C@@]([H])(CC1=CC=C(O)C=C1)C(O)=N[C@]([H])(CC1=CN(CC2=CC=CC=C2)C=N1)C(O)=N[C@@]([H])(CC(C)C)C(O)=N[C@@]([H])(CCCNC(N)=N)C(=O)N1CCC[C@@]1([H])C(O)=NCC

>  <SYNONYMS>  (1) 
[(im-Bzl)-D-His6,Pro9-NEt]-gonadotropin releasing hormone; 5-oxo-L-prolyl-L-histidyl-L-tryptophyl-L-seryl-L-tyrosyl-1-benzyl-D-histidyl-L-leucyl-L-arginyl-N-ethyl-L-prolinamide; 5-oxo-L-prolyl-L-histidyl-L-tryptophyl-L-seryl-L-tyrosyl-NÏ„-benzyl-D-histidyl-L-leucyl-L-arginyl-N-ethyl-L-prolinamide	; histrelina; histreline; histrelinum; L-pyroglutamyl-L-histidyl-L-tryptophyl-L-seryl-L-tyrosyl-D-Nim-benzyl-histidyl-L-leucyl-L-arginyl-L-proline ethylamide

$$$$
