
     RDKit          2D

 67 70  0  0  0  0  0  0  0  0999 V2000
    4.9441   -4.4555    0.0000 C   0  0  0  0  0  0  0  0  0  0  0  0
    4.9441   -3.6305    0.0000 C   0  0  0  0  0  0  0  0  0  0  0  0
    5.6585   -3.2180    0.0000 C   0  0  0  0  0  0  0  0  0  0  0  0
    5.6585   -2.3930    0.0000 C   0  0  0  0  0  0  0  0  0  0  0  0
    6.3730   -1.9805    0.0000 N   0  0  0  0  0  0  0  0  0  0  0  0
    7.0875   -2.3930    0.0000 C   0  0  0  0  0  0  0  0  0  0  0  0
    7.0875   -3.2180    0.0000 C   0  0  0  0  0  0  0  0  0  0  0  0
    7.8020   -3.6305    0.0000 C   0  0  0  0  0  0  0  0  0  0  0  0
    7.8020   -4.4555    0.0000 C   0  0  0  0  0  0  0  0  0  0  0  0
    6.3730   -1.1555    0.0000 C   0  0  0  0  0  0  0  0  0  0  0  0
    7.0875   -0.7430    0.0000 C   0  0  0  0  0  0  0  0  0  0  0  0
    7.0875    0.0820    0.0000 C   0  0  0  0  0  0  0  0  0  0  0  0
    7.8020    0.4945    0.0000 C   0  0  0  0  0  0  0  0  0  0  0  0
    8.5866    0.2395    0.0000 C   0  0  0  0  0  0  0  0  0  0  0  0
    9.0715    0.9070    0.0000 C   0  0  0  0  0  0  0  0  0  0  0  0
    9.8920    0.8207    0.0000 C   0  0  0  0  0  0  0  0  0  0  0  0
   10.2275    0.0671    0.0000 C   0  0  0  0  0  0  0  0  0  0  0  0
    9.7426   -0.6004    0.0000 C   0  0  0  0  0  0  0  0  0  0  0  0
    8.9221   -0.5141    0.0000 C   0  0  0  0  0  0  0  0  0  0  0  0
   11.0480   -0.0192    0.0000 Cl  0  0  0  0  0  0  0  0  0  0  0  0
    8.5866    1.5744    0.0000 C   0  0  0  0  0  0  0  0  0  0  0  0
    8.8415    2.3590    0.0000 C   0  0  0  0  0  0  0  0  0  0  0  0
    8.2895    2.9721    0.0000 C   0  0  0  0  0  0  0  0  0  0  0  0
    7.4825    2.8006    0.0000 C   0  0  0  0  0  0  0  0  0  0  0  0
    6.9305    3.4137    0.0000 C   0  0  0  0  0  0  0  0  0  0  0  0
    7.1854    4.1983    0.0000 C   0  0  0  0  0  0  0  0  0  0  0  0
    7.9924    4.3699    0.0000 C   0  0  0  0  0  0  0  0  0  0  0  0
    8.5444    3.7568    0.0000 C   0  0  0  0  0  0  0  0  0  0  0  0
    6.6334    4.8114    0.0000 Cl  0  0  0  0  0  0  0  0  0  0  0  0
    7.8020    1.3195    0.0000 C   0  0  0  0  0  0  0  0  0  0  0  0
    7.0875    1.7320    0.0000 C   0  0  0  0  0  0  0  0  0  0  0  0
    6.3730    1.3195    0.0000 C   0  0  0  0  0  0  0  0  0  0  0  0
    6.3730    0.4945    0.0000 C   0  0  0  0  0  0  0  0  0  0  0  0
    5.6585    1.7320    0.0000 Cl  0  0  0  0  0  0  0  0  0  0  0  0
    7.8020   -1.1555    0.0000 O   0  0  0  0  0  0  0  0  0  0  0  0
    0.0000    0.0000    0.0000 H   0  0  0  0  0  0  0  0  0  0  0  0
    0.0000    0.0000    0.0000 H   0  0  0  0  0  0  0  0  0  0  0  0
    0.0000    0.0000    0.0000 H   0  0  0  0  0  0  0  0  0  0  0  0
    0.0000    0.0000    0.0000 H   0  0  0  0  0  0  0  0  0  0  0  0
    0.0000    0.0000    0.0000 H   0  0  0  0  0  0  0  0  0  0  0  0
    0.0000    0.0000    0.0000 H   0  0  0  0  0  0  0  0  0  0  0  0
    0.0000    0.0000    0.0000 H   0  0  0  0  0  0  0  0  0  0  0  0
    0.0000    0.0000    0.0000 H   0  0  0  0  0  0  0  0  0  0  0  0
    0.0000    0.0000    0.0000 H   0  0  0  0  0  0  0  0  0  0  0  0
    0.0000    0.0000    0.0000 H   0  0  0  0  0  0  0  0  0  0  0  0
    0.0000    0.0000    0.0000 H   0  0  0  0  0  0  0  0  0  0  0  0
    0.0000    0.0000    0.0000 H   0  0  0  0  0  0  0  0  0  0  0  0
    0.0000    0.0000    0.0000 H   0  0  0  0  0  0  0  0  0  0  0  0
    0.0000    0.0000    0.0000 H   0  0  0  0  0  0  0  0  0  0  0  0
    0.0000    0.0000    0.0000 H   0  0  0  0  0  0  0  0  0  0  0  0
    0.0000    0.0000    0.0000 H   0  0  0  0  0  0  0  0  0  0  0  0
    0.0000    0.0000    0.0000 H   0  0  0  0  0  0  0  0  0  0  0  0
    0.0000    0.0000    0.0000 H   0  0  0  0  0  0  0  0  0  0  0  0
    0.0000    0.0000    0.0000 H   0  0  0  0  0  0  0  0  0  0  0  0
    0.0000    0.0000    0.0000 H   0  0  0  0  0  0  0  0  0  0  0  0
    0.0000    0.0000    0.0000 H   0  0  0  0  0  0  0  0  0  0  0  0
    0.0000    0.0000    0.0000 H   0  0  0  0  0  0  0  0  0  0  0  0
    0.0000    0.0000    0.0000 H   0  0  0  0  0  0  0  0  0  0  0  0
    0.0000    0.0000    0.0000 H   0  0  0  0  0  0  0  0  0  0  0  0
    0.0000    0.0000    0.0000 H   0  0  0  0  0  0  0  0  0  0  0  0
    0.0000    0.0000    0.0000 H   0  0  0  0  0  0  0  0  0  0  0  0
    0.0000    0.0000    0.0000 H   0  0  0  0  0  0  0  0  0  0  0  0
    0.0000    0.0000    0.0000 H   0  0  0  0  0  0  0  0  0  0  0  0
    0.0000    0.0000    0.0000 H   0  0  0  0  0  0  0  0  0  0  0  0
    0.0000    0.0000    0.0000 H   0  0  0  0  0  0  0  0  0  0  0  0
    0.0000    0.0000    0.0000 H   0  0  0  0  0  0  0  0  0  0  0  0
    0.0000    0.0000    0.0000 H   0  0  0  0  0  0  0  0  0  0  0  0
  1  2  1  0
  2  3  1  0
  3  4  1  0
  4  5  1  0
  5  6  1  0
  6  7  1  0
  7  8  1  0
  8  9  1  0
  5 10  1  0
 10 11  1  0
 11 12  1  0
 12 13  2  0
 13 14  1  0
 14 15  2  0
 15 16  1  0
 16 17  2  0
 17 18  1  0
 18 19  2  0
 14 19  1  0
 17 20  1  0
 15 21  1  0
 21 22  2  0
 22 23  1  0
 23 24  2  0
 24 25  1  0
 25 26  2  0
 26 27  1  0
 27 28  2  0
 23 28  1  0
 26 29  1  0
 21 30  1  0
 13 30  1  0
 30 31  2  0
 31 32  1  0
 32 33  2  0
 12 33  1  0
 32 34  1  0
 11 35  1  0
  1 36  1  0
  1 37  1  0
  1 38  1  0
  2 39  1  0
  2 40  1  0
  3 41  1  0
  3 42  1  0
  4 43  1  0
  4 44  1  0
  6 45  1  0
  6 46  1  0
  7 47  1  0
  7 48  1  0
  8 49  1  0
  8 50  1  0
  9 51  1  0
  9 52  1  0
  9 53  1  0
 10 54  1  0
 10 55  1  0
 11 56  1  0
 16 57  1  0
 18 58  1  0
 19 59  1  0
 22 60  1  0
 24 61  1  0
 25 62  1  0
 27 63  1  0
 28 64  1  0
 31 65  1  0
 33 66  1  0
 35 67  1  0
M  END
>  <ALOGPS_LOGP>  (1) 
8.34

>  <ALOGPS_LOGS>  (1) 
-7.23

>  <ALOGPS_SOLUBILITY>  (1) 
3.09e-05 g/l

>  <DATABASE_ID>  (1) 
DB06708

>  <DATABASE_NAME>  (1) 
drugbank

>  <DRUGBANK_ID>  (1) 
DB06708

>  <DRUG_GROUPS>  (1) 
approved

>  <EXACT_MASS>  (1) 
527.154947772

>  <FORMULA>  (1) 
C30H32Cl3NO

>  <GENERIC_NAME>  (1) 
Lumefantrine

>  <INCHI_IDENTIFIER>  (1) 
InChI=1S/C30H32Cl3NO/c1-3-5-13-34(14-6-4-2)19-29(35)28-18-23(33)17-27-25(15-20-7-9-21(31)10-8-20)26-16-22(32)11-12-24(26)30(27)28/h7-12,15-18,29,35H,3-6,13-14,19H2,1-2H3/b25-15-

>  <INCHI_KEY>  (1) 
DYLGFOYVTXJFJP-MYYYXRDXSA-N

>  <JCHEM_ACCEPTOR_COUNT>  (1) 
2

>  <JCHEM_AVERAGE_POLARIZABILITY>  (1) 
60.69151807154687

>  <JCHEM_BIOAVAILABILITY>  (1) 
0

>  <JCHEM_DONOR_COUNT>  (1) 
1

>  <JCHEM_FORMAL_CHARGE>  (1) 
0

>  <JCHEM_GHOSE_FILTER>  (1) 
0

>  <JCHEM_IUPAC>  (1) 
2-(dibutylamino)-1-[(9Z)-2,7-dichloro-9-[(4-chlorophenyl)methylidene]-9H-fluoren-4-yl]ethan-1-ol

>  <JCHEM_LOGP>  (1) 
9.191258858333333

>  <JCHEM_MDDR_LIKE_RULE>  (1) 
1

>  <JCHEM_NUMBER_OF_RINGS>  (1) 
4

>  <JCHEM_PHYSIOLOGICAL_CHARGE>  (1) 
1

>  <JCHEM_PKA_STRONGEST_ACIDIC>  (1) 
14.10168381554502

>  <JCHEM_PKA_STRONGEST_BASIC>  (1) 
9.782283537249677

>  <JCHEM_POLAR_SURFACE_AREA>  (1) 
23.47

>  <JCHEM_REFRACTIVITY>  (1) 
160.8105

>  <JCHEM_ROTATABLE_BOND_COUNT>  (1) 
10

>  <JCHEM_RULE_OF_FIVE>  (1) 
0

>  <JCHEM_TRADITIONAL_IUPAC>  (1) 
lumefantrine

>  <JCHEM_VEBER_RULE>  (1) 
1

>  <MOLECULAR_WEIGHT>  (1) 
528.94

>  <PRODUCTS>  (1) 
Coartem

>  <SMILES>  (1) 
CCCCN(CCCC)CC(O)C1=C2C(=CC(Cl)=C1)\C(=C/C1=CC=C(Cl)C=C1)C1=C2C=CC(Cl)=C1

>  <SYNONYMS>  (1) 
(±)-2,7-Dichloro-9-((Z)-p-chlorobenzylidene)-α-((dibutylamino)methyl)fluorene-4-methanol; 2-Dibutylamino-1-[2,7-dichloro-9-(4-chloro-benzylidene)-9H-fluoren-4-yl]-ethanol; 2-Dibutylamino-1-{2,7-dichloro-9-[1-(4-chloro-phenyl)-meth-(Z)-ylidene]-9H-fluoren-4-yl}-ethanol; Benflumetol; dl-Benflumelol

$$$$
