
     RDKit          2D

227236  0  0  0  0  0  0  0  0999 V2000
    0.3164    6.3965    0.0000 C   0  0  0  0  0  0  0  0  0  0  0  0
    1.0274    5.9782    0.0000 C   0  0  0  0  0  0  0  0  0  0  0  0
    1.7803    6.3965    0.0000 N   0  0  0  0  0  0  0  0  0  0  0  0
    2.4914    5.9782    0.0000 C   0  0  0  0  0  0  0  0  0  0  0  0
    3.2026    6.3965    0.0000 C   0  0  0  0  0  0  0  0  0  0  0  0
    3.9555    5.9782    0.0000 C   0  0  0  0  0  0  0  0  0  0  0  0
    4.6667    6.3965    0.0000 C   0  0  0  0  0  0  0  0  0  0  0  0
    5.3777    5.9782    0.0000 C   0  0  0  0  0  0  0  0  0  0  0  0
    6.1306    6.3965    0.0000 C   0  0  0  0  0  0  0  0  0  0  0  0
    6.8417    5.9782    0.0000 C   0  0  0  0  0  0  0  0  0  0  0  0
    7.5530    6.3965    0.0000 C   0  0  0  0  0  0  0  0  0  0  0  0
    8.3059    5.9782    0.0000 C   0  0  0  0  0  0  0  0  0  0  0  0
    8.9751    6.3965    0.0000 C   0  0  0  0  0  0  0  0  0  0  0  0
   -1.8305    1.8649    0.0000 C   0  0  0  0  0  0  0  0  0  0  0  0
   -1.1159    1.4524    0.0000 C   0  0  0  0  0  0  0  0  0  0  0  0
   -2.5450    1.4524    0.0000 C   0  0  0  0  0  0  0  0  0  0  0  0
   -1.8305    0.2149    0.0000 C   0  0  0  0  0  0  0  0  0  0  0  0
   -2.5450    0.6274    0.0000 C   0  0  0  0  0  0  0  0  0  0  0  0
   -1.1159    0.6274    0.0000 C   0  0  0  0  0  0  0  0  0  0  0  0
   -0.4015    1.8649    0.0000 O   0  0  0  0  0  0  0  0  0  0  0  0
   -3.2594    1.8649    0.0000 O   0  0  0  0  0  0  0  0  0  0  0  0
   -6.1172    0.2149    0.0000 C   0  0  0  0  0  0  0  0  0  0  0  0
    2.4561    0.2149    0.0000 C   0  0  0  0  0  0  0  0  0  0  0  0
   -5.4028    0.6274    0.0000 C   0  0  0  0  0  0  0  0  0  0  0  0
    1.7417    0.6274    0.0000 C   0  0  0  0  0  0  0  0  0  0  0  0
   -3.9738    1.4525    0.0000 C   0  0  0  0  0  0  0  0  0  0  0  0
    0.3128    1.4524    0.0000 C   0  0  0  0  0  0  0  0  0  0  0  0
   -3.9739    0.6274    0.0000 C   0  0  0  0  0  0  0  0  0  0  0  0
    1.0272    1.8648    0.0000 C   0  0  0  0  0  0  0  0  0  0  0  0
    1.7417    1.4523    0.0000 C   0  0  0  0  0  0  0  0  0  0  0  0
    1.0272    0.2149    0.0000 C   0  0  0  0  0  0  0  0  0  0  0  0
   -5.4028    1.4525    0.0000 C   0  0  0  0  0  0  0  0  0  0  0  0
   -4.6883    1.8650    0.0000 C   0  0  0  0  0  0  0  0  0  0  0  0
    0.3128    0.6274    0.0000 C   0  0  0  0  0  0  0  0  0  0  0  0
    1.0272    2.6898    0.0000 Cl  0  0  0  0  0  0  0  0  0  0  0  0
   -6.8318    0.6274    0.0000 O   0  0  0  0  0  0  0  0  0  0  0  0
   -3.2594    0.2149    0.0000 Cl  0  0  0  0  0  0  0  0  0  0  0  0
    3.1705    0.6273    0.0000 O   0  0  0  0  0  0  0  0  0  0  0  0
   -2.5447    3.9273    0.0000 C   0  0  0  0  0  0  0  0  0  0  0  0
   -2.5449    3.1024    0.0000 C   0  0  0  0  0  0  0  0  0  0  0  0
   -3.2593    4.3398    0.0000 C   0  0  0  0  0  0  0  0  0  0  0  0
   -3.2593    2.6899    0.0000 O   0  0  0  0  0  0  0  0  0  0  0  0
   -1.1159    6.4023    0.0000 C   0  0  0  0  0  0  0  0  0  0  0  0
   -3.9738    3.9274    0.0000 C   0  0  0  0  0  0  0  0  0  0  0  0
   -1.8303    5.1648    0.0000 C   0  0  0  0  0  0  0  0  0  0  0  0
   -3.9738    3.1024    0.0000 C   0  0  0  0  0  0  0  0  0  0  0  0
   -1.1159    5.5773    0.0000 C   0  0  0  0  0  0  0  0  0  0  0  0
   -2.5447    5.5773    0.0000 O   0  0  0  0  0  0  0  0  0  0  0  0
   -1.8303    6.8148    0.0000 C   0  0  0  0  0  0  0  0  0  0  0  0
   -1.8305    4.3398    0.0000 O   0  0  0  0  0  0  0  0  0  0  0  0
   -2.5447    6.4023    0.0000 C   0  0  0  0  0  0  0  0  0  0  0  0
   -3.2593    5.1648    0.0000 O   0  0  0  0  0  0  0  0  0  0  0  0
   -4.6883    4.3399    0.0000 O   0  0  0  0  0  0  0  0  0  0  0  0
   -1.8303    7.6398    0.0000 O   0  0  0  0  0  0  0  0  0  0  0  0
   -0.7034    7.1167    0.0000 C   0  0  0  0  0  0  0  0  0  0  0  0
   -3.2593    6.8148    0.0000 C   0  0  0  0  0  0  0  0  0  0  0  0
   -1.8305    2.6899    0.0000 O   0  0  0  0  0  0  0  0  0  0  0  0
   -4.6883    2.6899    0.0000 C   0  0  0  0  0  0  0  0  0  0  0  0
   -5.4028    3.1024    0.0000 O   0  0  0  0  0  0  0  0  0  0  0  0
   -4.6883    0.2149    0.0000 C   0  0  0  0  0  0  0  0  0  0  0  0
    2.4561   -1.4350    0.0000 C   0  0  0  0  0  0  0  0  0  0  0  0
   -1.1161   -1.8475    0.0000 N   0  0  0  0  0  0  0  0  0  0  0  0
    1.7417   -1.8475    0.0000 C   0  0  0  0  0  0  0  0  0  0  0  0
   -2.5449   -1.8475    0.0000 C   0  0  0  0  0  0  0  0  0  0  0  0
    1.0272   -1.4350    0.0000 N   0  0  0  0  0  0  0  0  0  0  0  0
   -1.8306   -1.4350    0.0000 C   0  0  0  0  0  0  0  0  0  0  0  0
   -0.4015   -1.4350    0.0000 C   0  0  0  0  0  0  0  0  0  0  0  0
    0.3128   -1.8475    0.0000 C   0  0  0  0  0  0  0  0  0  0  0  0
    1.7417   -2.6725    0.0000 O   0  0  0  0  0  0  0  0  0  0  0  0
   -2.5450   -2.6724    0.0000 O   0  0  0  0  0  0  0  0  0  0  0  0
   -0.4015   -0.6100    0.0000 O   0  0  0  0  0  0  0  0  0  0  0  0
    0.3128   -2.6725    0.0000 C   0  0  0  0  0  0  0  0  0  0  0  0
   -0.4015   -3.0850    0.0000 C   0  0  0  0  0  0  0  0  0  0  0  0
   -1.1161   -2.6725    0.0000 N   0  0  0  0  0  0  0  0  0  0  0  0
   -0.4015   -3.9099    0.0000 O   0  0  0  0  0  0  0  0  0  0  0  0
    3.1705   -1.8475    0.0000 N   0  0  0  0  0  0  0  0  0  0  0  0
    3.8851   -1.4350    0.0000 C   0  0  0  0  0  0  0  0  0  0  0  0
    4.5995   -1.8475    0.0000 C   0  0  0  0  0  0  0  0  0  0  0  0
    3.8851   -0.6100    0.0000 O   0  0  0  0  0  0  0  0  0  0  0  0
    5.3139   -1.4350    0.0000 C   0  0  0  0  0  0  0  0  0  0  0  0
    4.5995   -2.6725    0.0000 N   0  0  0  0  0  0  0  0  0  0  0  0
    6.0284   -1.8475    0.0000 C   0  0  0  0  0  0  0  0  0  0  0  0
    5.3139   -3.0850    0.0000 C   0  0  0  0  0  0  0  0  0  0  0  0
    6.0284   -2.6725    0.0000 C   0  0  0  0  0  0  0  0  0  0  0  0
    6.7430   -1.4352    0.0000 C   0  0  0  0  0  0  0  0  0  0  0  0
   -6.1172   -1.4348    0.0000 C   0  0  0  0  0  0  0  0  0  0  0  0
   -3.2594   -1.4350    0.0000 N   0  0  0  0  0  0  0  0  0  0  0  0
   -3.9739   -1.8474    0.0000 C   0  0  0  0  0  0  0  0  0  0  0  0
   -7.5462   -1.4348    0.0000 O   0  0  0  0  0  0  0  0  0  0  0  0
   -5.4028   -1.8474    0.0000 N   0  0  0  0  0  0  0  0  0  0  0  0
   -4.6884   -1.4348    0.0000 C   0  0  0  0  0  0  0  0  0  0  0  0
   -4.6884   -0.6100    0.0000 O   0  0  0  0  0  0  0  0  0  0  0  0
   -8.2607   -2.6724    0.0000 C   0  0  0  0  0  0  0  0  0  0  0  0
   -8.2607   -1.8474    0.0000 O   0  0  0  0  0  0  0  0  0  0  0  0
   -8.9751   -3.0850    0.0000 O   0  0  0  0  0  0  0  0  0  0  0  0
   -7.5463   -3.0849    0.0000 C   0  0  0  0  0  0  0  0  0  0  0  0
   -6.8318   -2.6724    0.0000 N   0  0  0  0  0  0  0  0  0  0  0  0
   -6.8318   -1.8474    0.0000 C   0  0  0  0  0  0  0  0  0  0  0  0
   -4.6997   -4.3342    0.0000 C   0  0  0  0  0  0  0  0  0  0  0  0
   -3.9853   -4.7467    0.0000 C   0  0  0  0  0  0  0  0  0  0  0  0
   -3.9851   -3.0968    0.0000 C   0  0  0  0  0  0  0  0  0  0  0  0
   -4.6997   -3.5093    0.0000 C   0  0  0  0  0  0  0  0  0  0  0  0
   -3.2707   -4.3343    0.0000 C   0  0  0  0  0  0  0  0  0  0  0  0
   -3.2707   -3.5093    0.0000 C   0  0  0  0  0  0  0  0  0  0  0  0
   -3.9853   -5.5718    0.0000 O   0  0  0  0  0  0  0  0  0  0  0  0
   -7.5463   -3.9099    0.0000 C   0  0  0  0  0  0  0  0  0  0  0  0
   -8.2607   -4.3224    0.0000 C   0  0  0  0  0  0  0  0  0  0  0  0
   -7.5463   -5.5599    0.0000 C   0  0  0  0  0  0  0  0  0  0  0  0
   -6.8318   -4.3224    0.0000 C   0  0  0  0  0  0  0  0  0  0  0  0
   -8.2607   -5.1474    0.0000 C   0  0  0  0  0  0  0  0  0  0  0  0
   -8.9751   -5.5599    0.0000 O   0  0  0  0  0  0  0  0  0  0  0  0
   -6.8318   -5.1474    0.0000 C   0  0  0  0  0  0  0  0  0  0  0  0
   -6.1172   -5.5599    0.0000 O   0  0  0  0  0  0  0  0  0  0  0  0
   -7.5463   -6.3849    0.0000 C   0  0  0  0  0  0  0  0  0  0  0  0
   -6.8352   -6.8032    0.0000 N   0  0  0  0  0  0  0  0  0  0  0  0
   -6.0823   -6.3849    0.0000 C   0  0  0  0  0  0  0  0  0  0  0  0
   -5.3711   -6.8032    0.0000 P   0  0  0  0  0  0  0  0  0  0  0  0
   -4.6601   -6.3849    0.0000 O   0  0  0  0  0  0  0  0  0  0  0  0
   -5.3711   -7.6398    0.0000 O   0  0  0  0  0  0  0  0  0  0  0  0
   -4.6601   -7.2215    0.0000 O   0  0  0  0  0  0  0  0  0  0  0  0
   -0.4014    5.9898    0.0000 N   0  0  0  0  0  0  0  0  0  0  0  0
    0.0000    0.0000    0.0000 H   0  0  0  0  0  0  0  0  0  0  0  0
    0.0000    0.0000    0.0000 H   0  0  0  0  0  0  0  0  0  0  0  0
    0.0000    0.0000    0.0000 H   0  0  0  0  0  0  0  0  0  0  0  0
    0.0000    0.0000    0.0000 H   0  0  0  0  0  0  0  0  0  0  0  0
    0.0000    0.0000    0.0000 H   0  0  0  0  0  0  0  0  0  0  0  0
    0.0000    0.0000    0.0000 H   0  0  0  0  0  0  0  0  0  0  0  0
    0.0000    0.0000    0.0000 H   0  0  0  0  0  0  0  0  0  0  0  0
    0.0000    0.0000    0.0000 H   0  0  0  0  0  0  0  0  0  0  0  0
    0.0000    0.0000    0.0000 H   0  0  0  0  0  0  0  0  0  0  0  0
    0.0000    0.0000    0.0000 H   0  0  0  0  0  0  0  0  0  0  0  0
    0.0000    0.0000    0.0000 H   0  0  0  0  0  0  0  0  0  0  0  0
    0.0000    0.0000    0.0000 H   0  0  0  0  0  0  0  0  0  0  0  0
    0.0000    0.0000    0.0000 H   0  0  0  0  0  0  0  0  0  0  0  0
    0.0000    0.0000    0.0000 H   0  0  0  0  0  0  0  0  0  0  0  0
    0.0000    0.0000    0.0000 H   0  0  0  0  0  0  0  0  0  0  0  0
    0.0000    0.0000    0.0000 H   0  0  0  0  0  0  0  0  0  0  0  0
    0.0000    0.0000    0.0000 H   0  0  0  0  0  0  0  0  0  0  0  0
    0.0000    0.0000    0.0000 H   0  0  0  0  0  0  0  0  0  0  0  0
    0.0000    0.0000    0.0000 H   0  0  0  0  0  0  0  0  0  0  0  0
    0.0000    0.0000    0.0000 H   0  0  0  0  0  0  0  0  0  0  0  0
    0.0000    0.0000    0.0000 H   0  0  0  0  0  0  0  0  0  0  0  0
    0.0000    0.0000    0.0000 H   0  0  0  0  0  0  0  0  0  0  0  0
    0.0000    0.0000    0.0000 H   0  0  0  0  0  0  0  0  0  0  0  0
    0.0000    0.0000    0.0000 H   0  0  0  0  0  0  0  0  0  0  0  0
    0.0000    0.0000    0.0000 H   0  0  0  0  0  0  0  0  0  0  0  0
    0.0000    0.0000    0.0000 H   0  0  0  0  0  0  0  0  0  0  0  0
    0.0000    0.0000    0.0000 H   0  0  0  0  0  0  0  0  0  0  0  0
    0.0000    0.0000    0.0000 H   0  0  0  0  0  0  0  0  0  0  0  0
    0.0000    0.0000    0.0000 H   0  0  0  0  0  0  0  0  0  0  0  0
    0.0000    0.0000    0.0000 H   0  0  0  0  0  0  0  0  0  0  0  0
    0.0000    0.0000    0.0000 H   0  0  0  0  0  0  0  0  0  0  0  0
    0.0000    0.0000    0.0000 H   0  0  0  0  0  0  0  0  0  0  0  0
    0.0000    0.0000    0.0000 H   0  0  0  0  0  0  0  0  0  0  0  0
    0.0000    0.0000    0.0000 H   0  0  0  0  0  0  0  0  0  0  0  0
    0.0000    0.0000    0.0000 H   0  0  0  0  0  0  0  0  0  0  0  0
    0.0000    0.0000    0.0000 H   0  0  0  0  0  0  0  0  0  0  0  0
    0.0000    0.0000    0.0000 H   0  0  0  0  0  0  0  0  0  0  0  0
    0.0000    0.0000    0.0000 H   0  0  0  0  0  0  0  0  0  0  0  0
    0.0000    0.0000    0.0000 H   0  0  0  0  0  0  0  0  0  0  0  0
    0.0000    0.0000    0.0000 H   0  0  0  0  0  0  0  0  0  0  0  0
    0.0000    0.0000    0.0000 H   0  0  0  0  0  0  0  0  0  0  0  0
    0.0000    0.0000    0.0000 H   0  0  0  0  0  0  0  0  0  0  0  0
    0.0000    0.0000    0.0000 H   0  0  0  0  0  0  0  0  0  0  0  0
    0.0000    0.0000    0.0000 H   0  0  0  0  0  0  0  0  0  0  0  0
    0.0000    0.0000    0.0000 H   0  0  0  0  0  0  0  0  0  0  0  0
    0.0000    0.0000    0.0000 H   0  0  0  0  0  0  0  0  0  0  0  0
    0.0000    0.0000    0.0000 H   0  0  0  0  0  0  0  0  0  0  0  0
    0.0000    0.0000    0.0000 H   0  0  0  0  0  0  0  0  0  0  0  0
    0.0000    0.0000    0.0000 H   0  0  0  0  0  0  0  0  0  0  0  0
    0.0000    0.0000    0.0000 H   0  0  0  0  0  0  0  0  0  0  0  0
    0.0000    0.0000    0.0000 H   0  0  0  0  0  0  0  0  0  0  0  0
    0.0000    0.0000    0.0000 H   0  0  0  0  0  0  0  0  0  0  0  0
    0.0000    0.0000    0.0000 H   0  0  0  0  0  0  0  0  0  0  0  0
    0.0000    0.0000    0.0000 H   0  0  0  0  0  0  0  0  0  0  0  0
    0.0000    0.0000    0.0000 H   0  0  0  0  0  0  0  0  0  0  0  0
    0.0000    0.0000    0.0000 H   0  0  0  0  0  0  0  0  0  0  0  0
    0.0000    0.0000    0.0000 H   0  0  0  0  0  0  0  0  0  0  0  0
    0.0000    0.0000    0.0000 H   0  0  0  0  0  0  0  0  0  0  0  0
    0.0000    0.0000    0.0000 H   0  0  0  0  0  0  0  0  0  0  0  0
    0.0000    0.0000    0.0000 H   0  0  0  0  0  0  0  0  0  0  0  0
    0.0000    0.0000    0.0000 H   0  0  0  0  0  0  0  0  0  0  0  0
    0.0000    0.0000    0.0000 H   0  0  0  0  0  0  0  0  0  0  0  0
    0.0000    0.0000    0.0000 H   0  0  0  0  0  0  0  0  0  0  0  0
    0.0000    0.0000    0.0000 H   0  0  0  0  0  0  0  0  0  0  0  0
    0.0000    0.0000    0.0000 H   0  0  0  0  0  0  0  0  0  0  0  0
    0.0000    0.0000    0.0000 H   0  0  0  0  0  0  0  0  0  0  0  0
    0.0000    0.0000    0.0000 H   0  0  0  0  0  0  0  0  0  0  0  0
    0.0000    0.0000    0.0000 H   0  0  0  0  0  0  0  0  0  0  0  0
    0.0000    0.0000    0.0000 H   0  0  0  0  0  0  0  0  0  0  0  0
    0.0000    0.0000    0.0000 H   0  0  0  0  0  0  0  0  0  0  0  0
    0.0000    0.0000    0.0000 H   0  0  0  0  0  0  0  0  0  0  0  0
    0.0000    0.0000    0.0000 H   0  0  0  0  0  0  0  0  0  0  0  0
    0.0000    0.0000    0.0000 H   0  0  0  0  0  0  0  0  0  0  0  0
    0.0000    0.0000    0.0000 H   0  0  0  0  0  0  0  0  0  0  0  0
    0.0000    0.0000    0.0000 H   0  0  0  0  0  0  0  0  0  0  0  0
    0.0000    0.0000    0.0000 H   0  0  0  0  0  0  0  0  0  0  0  0
    0.0000    0.0000    0.0000 H   0  0  0  0  0  0  0  0  0  0  0  0
    0.0000    0.0000    0.0000 H   0  0  0  0  0  0  0  0  0  0  0  0
    0.0000    0.0000    0.0000 H   0  0  0  0  0  0  0  0  0  0  0  0
    0.0000    0.0000    0.0000 H   0  0  0  0  0  0  0  0  0  0  0  0
    0.0000    0.0000    0.0000 H   0  0  0  0  0  0  0  0  0  0  0  0
    0.0000    0.0000    0.0000 H   0  0  0  0  0  0  0  0  0  0  0  0
    0.0000    0.0000    0.0000 H   0  0  0  0  0  0  0  0  0  0  0  0
    0.0000    0.0000    0.0000 H   0  0  0  0  0  0  0  0  0  0  0  0
    0.0000    0.0000    0.0000 H   0  0  0  0  0  0  0  0  0  0  0  0
    0.0000    0.0000    0.0000 H   0  0  0  0  0  0  0  0  0  0  0  0
    0.0000    0.0000    0.0000 H   0  0  0  0  0  0  0  0  0  0  0  0
    0.0000    0.0000    0.0000 H   0  0  0  0  0  0  0  0  0  0  0  0
    0.0000    0.0000    0.0000 H   0  0  0  0  0  0  0  0  0  0  0  0
    0.0000    0.0000    0.0000 H   0  0  0  0  0  0  0  0  0  0  0  0
    0.0000    0.0000    0.0000 H   0  0  0  0  0  0  0  0  0  0  0  0
    0.0000    0.0000    0.0000 H   0  0  0  0  0  0  0  0  0  0  0  0
    0.0000    0.0000    0.0000 H   0  0  0  0  0  0  0  0  0  0  0  0
    0.0000    0.0000    0.0000 H   0  0  0  0  0  0  0  0  0  0  0  0
    0.0000    0.0000    0.0000 H   0  0  0  0  0  0  0  0  0  0  0  0
    0.0000    0.0000    0.0000 H   0  0  0  0  0  0  0  0  0  0  0  0
    0.0000    0.0000    0.0000 H   0  0  0  0  0  0  0  0  0  0  0  0
    0.0000    0.0000    0.0000 H   0  0  0  0  0  0  0  0  0  0  0  0
    0.0000    0.0000    0.0000 H   0  0  0  0  0  0  0  0  0  0  0  0
    0.0000    0.0000    0.0000 H   0  0  0  0  0  0  0  0  0  0  0  0
    0.0000    0.0000    0.0000 H   0  0  0  0  0  0  0  0  0  0  0  0
    0.0000    0.0000    0.0000 H   0  0  0  0  0  0  0  0  0  0  0  0
    0.0000    0.0000    0.0000 H   0  0  0  0  0  0  0  0  0  0  0  0
    0.0000    0.0000    0.0000 H   0  0  0  0  0  0  0  0  0  0  0  0
    0.0000    0.0000    0.0000 H   0  0  0  0  0  0  0  0  0  0  0  0
    0.0000    0.0000    0.0000 H   0  0  0  0  0  0  0  0  0  0  0  0
  1  2  1  0
  2  3  1  0
  3  4  1  0
  4  5  1  0
  5  6  1  0
  6  7  1  0
  7  8  1  0
  8  9  1  0
  9 10  1  0
 10 11  1  0
 11 12  1  0
 12 13  1  0
 57 14  1  0
 15 14  1  0
 20 15  1  0
 16 14  2  0
 21 16  1  0
 17 66  1  0
 18 17  2  0
 18 16  1  0
 19 15  2  0
 19 17  1  0
 27 20  1  0
 26 21  1  0
 24 22  1  0
 22 36  1  1
 22 86  1  0
 23 38  1  6
 25 23  1  0
 23 61  1  0
 60 24  1  0
 32 24  2  0
 31 25  1  0
 30 25  2  0
 33 26  2  0
 28 26  1  0
 29 27  2  0
 34 27  1  0
 60 28  2  0
 37 28  1  0
 30 29  1  0
 35 29  1  0
 34 31  2  0
 33 32  1  0
 40 39  1  0
 41 39  1  0
 39 50  1  1
 40 57  1  6
 42 40  1  0
 41 52  1  1
 44 41  1  0
 46 42  1  0
 47 43  1  0
 43 55  1  6
 49 43  1  0
 46 44  1  0
 44 53  1  6
 45 50  1  6
 47 45  1  0
 48 45  1  0
 46 58  1  6
 51 48  1  0
 51 49  1  0
 49 54  1  6
 51 56  1  6
 58 59  1  0
 63 61  1  0
 61 76  1  6
 64 87  1  0
 66 62  1  0
 67 62  1  0
 65 63  1  0
 69 63  2  0
 66 64  1  0
 70 64  2  0
 68 65  1  0
 68 67  1  0
 71 67  2  0
 68 72  1  6
 72 73  1  0
 73 75  2  0
 73 74  1  0
 77 76  1  0
 78 77  1  1
 79 77  2  0
 80 78  1  0
 78 81  1  0
 82 80  1  0
 83 81  1  0
 84 82  1  0
 85 82  1  0
104101  2  0
 88101  1  0
 88 87  1  0
 86 90  1  0
 91 90  1  0
 88 91  1  0
 91 92  2  0
 93 94  2  0
 93 95  1  0
 96 93  1  6
 96106  1  0
 96 97  1  0
 98 86  1  0
 89 98  2  0
 98 97  1  0
100 99  1  0
101102  1  0
102 99  2  0
103104  1  0
103100  2  0
105100  1  0
106107  1  0
106109  2  0
107110  2  0
110108  1  0
108112  2  0
112109  1  0
110111  1  0
112113  1  0
109 99  1  0
114115  1  0
115116  1  0
116117  1  0
117118  1  0
117119  2  0
117120  1  0
108114  1  0
  1121  1  0
 43121  1  0
  1122  1  0
  1123  1  0
  2124  1  0
  2125  1  0
  3126  1  0
  4127  1  0
  4128  1  0
  5129  1  0
  5130  1  0
  6131  1  0
  6132  1  0
  7133  1  0
  7134  1  0
  8135  1  0
  8136  1  0
  9137  1  0
  9138  1  0
 10139  1  0
 10140  1  0
 11141  1  0
 11142  1  0
 12143  1  0
 12144  1  0
 13145  1  0
 13146  1  0
 13147  1  0
 18148  1  0
 19149  1  0
 22150  1  0
 23151  1  0
 30152  1  0
 31153  1  0
 32154  1  0
 33155  1  0
 34156  1  0
 36157  1  0
 38158  1  0
 39159  1  0
 40160  1  0
 41161  1  0
 44162  1  0
 45163  1  0
 46164  1  0
 47165  1  0
 47166  1  0
 49167  1  0
 51168  1  0
 52169  1  0
 53170  1  0
 54171  1  0
 55172  1  0
 55173  1  0
 55174  1  0
 56175  1  0
 56176  1  0
 56177  1  0
 58178  1  0
 58179  1  0
 59180  1  0
 60181  1  0
 61182  1  0
 62183  1  0
 65184  1  0
 66185  1  6
 68186  1  0
 72187  1  0
 72188  1  0
 74189  1  0
 74190  1  0
 76191  1  0
 78192  1  0
 80193  1  0
 80194  1  0
 81195  1  0
 82196  1  0
 83197  1  0
 83198  1  0
 83199  1  0
 84200  1  0
 84201  1  0
 84202  1  0
 85203  1  0
 85204  1  0
 85205  1  0
 86206  1  1
 87207  1  0
 88208  1  1
 90209  1  0
 95210  1  0
 96211  1  0
 97212  1  0
102213  1  0
103214  1  0
104215  1  0
105216  1  0
107217  1  0
111218  1  0
113219  1  0
114220  1  0
114221  1  0
115222  1  0
116223  1  0
116224  1  0
118225  1  0
120226  1  0
121227  1  0
M  END
>  <ALOGPS_LOGP>  (1) 
2.32

>  <ALOGPS_LOGS>  (1) 
-5.08

>  <ALOGPS_SOLUBILITY>  (1) 
1.48e-02 g/l

>  <DATABASE_ID>  (1) 
DB06402

>  <DATABASE_NAME>  (1) 
drugbank

>  <DRUGBANK_ID>  (1) 
DB06402

>  <DRUG_GROUPS>  (1) 
approved

>  <EXACT_MASS>  (1) 
1753.6374296

>  <FORMULA>  (1) 
C80H106Cl2N11O27P

>  <GENERIC_NAME>  (1) 
Telavancin

>  <INCHI_IDENTIFIER>  (1) 
InChI=1S/C80H106Cl2N11O27P/c1-7-8-9-10-11-12-13-14-21-85-22-23-87-80(5)32-57(115-37(4)71(80)103)119-70-68(102)67(101)55(34-94)118-79(70)120-69-53-28-41-29-54(69)117-52-20-17-40(27-46(52)82)65(99)63-77(109)91-61(78(110)111)43-30-50(96)44(33-86-35-121(112,113)114)66(100)58(43)42-25-38(15-18-49(42)95)59(74(106)93-63)90-75(107)60(41)89-73(105)48(31-56(83)97)88-76(108)62(92-72(104)47(84-6)24-36(2)3)64(98)39-16-19-51(116-53)45(81)26-39/h15-20,25-30,36-37,47-48,55,57,59-65,67-68,70-71,79,84-87,94-96,98-103H,7-14,21-24,31-35H2,1-6H3,(H2,83,97)(H,88,108)(H,89,105)(H,90,107)(H,91,109)(H,92,104)(H,93,106)(H,110,111)(H2,112,113,114)/t37-,47+,48-,55+,57-,59+,60+,61-,62+,63-,64+,65+,67+,68-,70+,71+,79-,80-/m0/s1

>  <INCHI_KEY>  (1) 
ONUMZHGUFYIKPM-MXNFEBESSA-N

>  <JCHEM_ACCEPTOR_COUNT>  (1) 
29

>  <JCHEM_ATOM_COUNT>  (1) 
227

>  <JCHEM_AVERAGE_POLARIZABILITY>  (1) 
175.85442607473388

>  <JCHEM_BIOAVAILABILITY>  (1) 
0

>  <JCHEM_DONOR_COUNT>  (1) 
23

>  <JCHEM_FORMAL_CHARGE>  (1) 
0

>  <JCHEM_GHOSE_FILTER>  (1) 
0

>  <JCHEM_IUPAC>  (1) 
(1S,2R,18R,19R,22S,25R,28R,40S)-22-(carbamoylmethyl)-5,47-dichloro-48-{[(2S,3R,4S,5S,6R)-3-{[(2S,4S,5S,6S)-4-{[2-(decylamino)ethyl]amino}-5-hydroxy-4,6-dimethyloxan-2-yl]oxy}-4,5-dihydroxy-6-(hydroxymethyl)oxan-2-yl]oxy}-2,18,32,35,37-pentahydroxy-19-[(2R)-4-methyl-2-(methylamino)pentanamido]-20,23,26,42,44-pentaoxo-36-{[(phosphonomethyl)amino]methyl}-7,13-dioxa-21,24,27,41,43-pentaazaoctacyclo[26.14.2.2^{3,6}.2^{14,17}.1^{8,12}.1^{29,33}.0^{10,25}.0^{34,39}]pentaconta-3,5,8,10,12(48),14,16,29(45),30,32,34,36,38,46,49-pentadecaene-40-carboxylic acid

>  <JCHEM_LOGP>  (1) 
-6.162542770621307

>  <JCHEM_MDDR_LIKE_RULE>  (1) 
1

>  <JCHEM_NUMBER_OF_RINGS>  (1) 
10

>  <JCHEM_PHYSIOLOGICAL_CHARGE>  (1) 
0

>  <JCHEM_PKA>  (1) 
3.1551198330638965

>  <JCHEM_PKA_STRONGEST_ACIDIC>  (1) 
1.5501921533565577

>  <JCHEM_PKA_STRONGEST_BASIC>  (1) 
9.992810425153209

>  <JCHEM_POLAR_SURFACE_AREA>  (1) 
598.0899999999999

>  <JCHEM_REFRACTIVITY>  (1) 
429.4118

>  <JCHEM_ROTATABLE_BOND_COUNT>  (1) 
30

>  <JCHEM_RULE_OF_FIVE>  (1) 
0

>  <JCHEM_TRADITIONAL_IUPAC>  (1) 
(1S,2R,18R,19R,22S,25R,28R,40S)-22-(carbamoylmethyl)-5,47-dichloro-48-{[(2S,3R,4S,5S,6R)-3-{[(2S,4S,5S,6S)-4-{[2-(decylamino)ethyl]amino}-5-hydroxy-4,6-dimethyloxan-2-yl]oxy}-4,5-dihydroxy-6-(hydroxymethyl)oxan-2-yl]oxy}-2,18,32,35,37-pentahydroxy-19-[(2R)-4-methyl-2-(methylamino)pentanamido]-20,23,26,42,44-pentaoxo-36-{[(phosphonomethyl)amino]methyl}-7,13-dioxa-21,24,27,41,43-pentaazaoctacyclo[26.14.2.2^{3,6}.2^{14,17}.1^{8,12}.1^{29,33}.0^{10,25}.0^{34,39}]pentaconta-3,5,8,10,12(48),14,16,29(45),30,32,34,36,38,46,49-pentadecaene-40-carboxylic acid

>  <JCHEM_VEBER_RULE>  (1) 
0

>  <MOLECULAR_WEIGHT>  (1) 
1755.65

>  <PRODUCTS>  (1) 
Vibativ

>  <SALTS>  (1) 
Telavancin hydrochloride

>  <SMILES>  (1) 
CCCCCCCCCCNCCN[C@@]1(C)C[C@H](O[C@@H]2[C@@H](O)[C@H](O)[C@@H](CO)O[C@H]2OC2=C3OC4=CC=C(C=C4Cl)[C@@H](O)[C@@H](NC(=O)[C@@H](CC(C)C)NC)C(=O)N[C@@H](CC(N)=O)C(=O)N[C@@H]4C(C=C2OC2=C(Cl)C=C(C=C2)[C@@H](O)[C@@H]2NC(=O)[C@H](NC4=O)C4=CC(=C(O)C=C4)C4=C(O)C(CNCP(O)(O)=O)=C(O)C=C4[C@H](NC2=O)C(O)=O)=C3)O[C@@H](C)[C@H]1O

>  <SYNONYMS>  (1) 
Telavancina; TÃ©lavancine; Telavancinum

$$$$
