
     RDKit          2D

 67 69  0  0  1  0  0  0  0  0999 V2000
    4.9205   -3.9640    0.0000 F   0  0  0  0  0  0  0  0  0  0  0  0
    4.0955   -5.3930    0.0000 F   0  0  0  0  0  0  0  0  0  0  0  0
    5.2224   -5.0910    0.0000 F   0  0  0  0  0  0  0  0  0  0  0  0
   10.2738    4.9068    0.0000 O   0  0  0  0  0  0  0  0  0  0  0  0
    7.3659    4.3967    0.0000 O   0  0  0  0  0  0  0  0  0  0  0  0
    3.7935   -1.7909    0.0000 O   0  0  0  0  0  0  0  0  0  0  0  0
    3.7935   -3.4410    0.0000 O   0  0  0  0  0  0  0  0  0  0  0  0
    8.1466    2.9981    0.0000 N   0  0  0  0  0  0  0  0  0  0  0  0
    4.5080    0.2716    0.0000 N   0  0  0  0  0  0  0  0  0  0  0  0
    5.9370    4.3967    0.0000 N   0  0  0  0  0  0  0  0  0  0  0  0
    7.3659    2.7467    0.0000 C   0  0  0  0  0  0  0  0  0  0  0  0
    8.6280    2.3341    0.0000 C   0  0  0  0  0  0  0  0  0  0  0  0
    7.3659    1.9216    0.0000 C   0  0  0  0  0  0  0  0  0  0  0  0
    8.1466    1.6702    0.0000 C   0  0  0  0  0  0  0  0  0  0  0  0
    8.4029    3.7823    0.0000 C   0  0  0  0  0  0  0  0  0  0  0  0
    5.9370    1.9216    0.0000 C   0  0  0  0  0  0  0  0  0  0  0  0
    6.6515    3.1592    0.0000 C   0  0  0  0  0  0  0  0  0  0  0  0
    6.6515    1.5091    0.0000 C   0  0  0  0  0  0  0  0  0  0  0  0
    5.2224    1.5091    0.0000 C   0  0  0  0  0  0  0  0  0  0  0  0
    5.9370    2.7467    0.0000 C   0  0  0  0  0  0  0  0  0  0  0  0
    5.2224    0.6841    0.0000 C   0  0  0  0  0  0  0  0  0  0  0  0
    9.2102    3.9524    0.0000 C   0  0  0  0  0  0  0  0  0  0  0  0
    6.6515    3.9842    0.0000 C   0  0  0  0  0  0  0  0  0  0  0  0
    5.9370    0.2716    0.0000 C   0  0  0  0  0  0  0  0  0  0  0  0
    9.4665    4.7366    0.0000 C   0  0  0  0  0  0  0  0  0  0  0  0
    4.5080   -0.5534    0.0000 C   0  0  0  0  0  0  0  0  0  0  0  0
    3.7935   -0.9659    0.0000 C   0  0  0  0  0  0  0  0  0  0  0  0
    3.0791   -2.2035    0.0000 C   0  0  0  0  0  0  0  0  0  0  0  0
    3.0791   -3.0285    0.0000 C   0  0  0  0  0  0  0  0  0  0  0  0
    2.3645   -1.7909    0.0000 C   0  0  0  0  0  0  0  0  0  0  0  0
    2.3645   -3.4410    0.0000 C   0  0  0  0  0  0  0  0  0  0  0  0
    1.6500   -2.2035    0.0000 C   0  0  0  0  0  0  0  0  0  0  0  0
    1.6500   -3.0285    0.0000 C   0  0  0  0  0  0  0  0  0  0  0  0
    3.7935   -4.2660    0.0000 C   0  0  0  0  0  0  0  0  0  0  0  0
    4.5080   -4.6785    0.0000 C   0  0  0  0  0  0  0  0  0  0  0  0
    0.0000    0.0000    0.0000 H   0  0  0  0  0  0  0  0  0  0  0  0
    0.0000    0.0000    0.0000 H   0  0  0  0  0  0  0  0  0  0  0  0
    0.0000    0.0000    0.0000 H   0  0  0  0  0  0  0  0  0  0  0  0
    0.0000    0.0000    0.0000 H   0  0  0  0  0  0  0  0  0  0  0  0
    0.0000    0.0000    0.0000 H   0  0  0  0  0  0  0  0  0  0  0  0
    0.0000    0.0000    0.0000 H   0  0  0  0  0  0  0  0  0  0  0  0
    0.0000    0.0000    0.0000 H   0  0  0  0  0  0  0  0  0  0  0  0
    0.0000    0.0000    0.0000 H   0  0  0  0  0  0  0  0  0  0  0  0
    0.0000    0.0000    0.0000 H   0  0  0  0  0  0  0  0  0  0  0  0
    0.0000    0.0000    0.0000 H   0  0  0  0  0  0  0  0  0  0  0  0
    0.0000    0.0000    0.0000 H   0  0  0  0  0  0  0  0  0  0  0  0
    0.0000    0.0000    0.0000 H   0  0  0  0  0  0  0  0  0  0  0  0
    0.0000    0.0000    0.0000 H   0  0  0  0  0  0  0  0  0  0  0  0
    0.0000    0.0000    0.0000 H   0  0  0  0  0  0  0  0  0  0  0  0
    0.0000    0.0000    0.0000 H   0  0  0  0  0  0  0  0  0  0  0  0
    0.0000    0.0000    0.0000 H   0  0  0  0  0  0  0  0  0  0  0  0
    0.0000    0.0000    0.0000 H   0  0  0  0  0  0  0  0  0  0  0  0
    0.0000    0.0000    0.0000 H   0  0  0  0  0  0  0  0  0  0  0  0
    0.0000    0.0000    0.0000 H   0  0  0  0  0  0  0  0  0  0  0  0
    0.0000    0.0000    0.0000 H   0  0  0  0  0  0  0  0  0  0  0  0
    0.0000    0.0000    0.0000 H   0  0  0  0  0  0  0  0  0  0  0  0
    0.0000    0.0000    0.0000 H   0  0  0  0  0  0  0  0  0  0  0  0
    0.0000    0.0000    0.0000 H   0  0  0  0  0  0  0  0  0  0  0  0
    0.0000    0.0000    0.0000 H   0  0  0  0  0  0  0  0  0  0  0  0
    0.0000    0.0000    0.0000 H   0  0  0  0  0  0  0  0  0  0  0  0
    0.0000    0.0000    0.0000 H   0  0  0  0  0  0  0  0  0  0  0  0
    0.0000    0.0000    0.0000 H   0  0  0  0  0  0  0  0  0  0  0  0
    0.0000    0.0000    0.0000 H   0  0  0  0  0  0  0  0  0  0  0  0
    0.0000    0.0000    0.0000 H   0  0  0  0  0  0  0  0  0  0  0  0
    0.0000    0.0000    0.0000 H   0  0  0  0  0  0  0  0  0  0  0  0
    0.0000    0.0000    0.0000 H   0  0  0  0  0  0  0  0  0  0  0  0
    0.0000    0.0000    0.0000 H   0  0  0  0  0  0  0  0  0  0  0  0
  1 35  1  0
  2 35  1  0
  3 35  1  0
  4 25  1  0
  5 23  2  0
  6 27  1  0
  6 28  1  0
  7 29  1  0
  7 34  1  0
  8 11  1  0
  8 12  1  0
  8 15  1  0
 21  9  1  1
  9 26  1  0
 10 23  1  0
 11 13  2  0
 11 17  1  0
 12 14  1  0
 13 14  1  0
 13 18  1  0
 15 22  1  0
 16 18  2  0
 16 19  1  0
 16 20  1  0
 17 20  2  0
 17 23  1  0
 19 21  1  0
 21 24  1  0
 22 25  1  0
 26 27  1  0
 28 29  2  0
 28 30  1  0
 29 31  1  0
 30 32  2  0
 31 33  2  0
 32 33  1  0
 34 35  1  0
  4 36  1  0
  9 37  1  0
 10 38  1  0
 10 39  1  0
 12 40  1  0
 12 41  1  0
 14 42  1  0
 14 43  1  0
 15 44  1  0
 15 45  1  0
 18 46  1  0
 19 47  1  0
 19 48  1  0
 20 49  1  0
 21 50  1  0
 22 51  1  0
 22 52  1  0
 24 53  1  0
 24 54  1  0
 24 55  1  0
 25 56  1  0
 25 57  1  0
 26 58  1  0
 26 59  1  0
 27 60  1  0
 27 61  1  0
 30 62  1  0
 31 63  1  0
 32 64  1  0
 33 65  1  0
 34 66  1  0
 34 67  1  0
M  END
>  <ALOGPS_LOGP>  (1) 
2.96

>  <ALOGPS_LOGS>  (1) 
-4.65

>  <ALOGPS_SOLUBILITY>  (1) 
1.11e-02 g/l

>  <DATABASE_ID>  (1) 
DB06207

>  <DATABASE_NAME>  (1) 
drugbank

>  <DRUGBANK_ID>  (1) 
DB06207

>  <DRUG_GROUPS>  (1) 
approved

>  <EXACT_MASS>  (1) 
495.234491142

>  <FORMULA>  (1) 
C25H32F3N3O4

>  <GENERIC_NAME>  (1) 
Silodosin

>  <INCHI_IDENTIFIER>  (1) 
InChI=1S/C25H32F3N3O4/c1-17(30-8-12-34-21-5-2-3-6-22(21)35-16-25(26,27)28)13-18-14-19-7-10-31(9-4-11-32)23(19)20(15-18)24(29)33/h2-3,5-6,14-15,17,30,32H,4,7-13,16H2,1H3,(H2,29,33)/t17-/m1/s1

>  <INCHI_KEY>  (1) 
PNCPYILNMDWPEY-QGZVFWFLSA-N

>  <INTERNATIONAL_BRANDS>  (1) 
Rapilif; Silodyx ; Urief

>  <JCHEM_ACCEPTOR_COUNT>  (1) 
6

>  <JCHEM_AVERAGE_POLARIZABILITY>  (1) 
49.889097035561605

>  <JCHEM_BIOAVAILABILITY>  (1) 
1

>  <JCHEM_DONOR_COUNT>  (1) 
3

>  <JCHEM_FORMAL_CHARGE>  (1) 
0

>  <JCHEM_GHOSE_FILTER>  (1) 
0

>  <JCHEM_IUPAC>  (1) 
1-(3-hydroxypropyl)-5-[(2R)-2-({2-[2-(2,2,2-trifluoroethoxy)phenoxy]ethyl}amino)propyl]-2,3-dihydro-1H-indole-7-carboxamide

>  <JCHEM_LOGP>  (1) 
3.04673584

>  <JCHEM_MDDR_LIKE_RULE>  (1) 
1

>  <JCHEM_NUMBER_OF_RINGS>  (1) 
3

>  <JCHEM_PHYSIOLOGICAL_CHARGE>  (1) 
1

>  <JCHEM_PKA>  (1) 
15.971479711334922

>  <JCHEM_PKA_STRONGEST_ACIDIC>  (1) 
14.865218690119796

>  <JCHEM_PKA_STRONGEST_BASIC>  (1) 
9.658573569261543

>  <JCHEM_POLAR_SURFACE_AREA>  (1) 
97.05

>  <JCHEM_REFRACTIVITY>  (1) 
128.9196

>  <JCHEM_ROTATABLE_BOND_COUNT>  (1) 
14

>  <JCHEM_RULE_OF_FIVE>  (1) 
1

>  <JCHEM_TRADITIONAL_IUPAC>  (1) 
silodosin

>  <JCHEM_VEBER_RULE>  (1) 
0

>  <MOLECULAR_WEIGHT>  (1) 
495.5345

>  <PRODUCTS>  (1) 
Rapaflo; Silodyx; Urorec

>  <SMILES>  (1) 
C[C@H](CC1=CC2=C(N(CCCO)CC2)C(=C1)C(N)=O)NCCOC1=CC=CC=C1OCC(F)(F)F

$$$$
