Carotene-beta
     RDKit          2D

 96 97  0  0  0  0  0  0  0  0999 V2000
   -6.7893   -0.2309    0.0000 C   0  0  0  0  0  0  0  0  0  0  0  0
   -6.0748    0.1816    0.0000 C   0  0  0  0  0  0  0  0  0  0  0  0
   -7.5038   -1.4684    0.0000 C   0  0  0  0  0  0  0  0  0  0  0  0
   -8.2182   -0.2309    0.0000 C   0  0  0  0  0  0  0  0  0  0  0  0
   -5.3603   -0.2309    0.0000 C   0  0  0  0  0  0  0  0  0  0  0  0
   -8.2182   -1.0559    0.0000 C   0  0  0  0  0  0  0  0  0  0  0  0
   -4.6459    0.1816    0.0000 C   0  0  0  0  0  0  0  0  0  0  0  0
   -3.9314   -0.2309    0.0000 C   0  0  0  0  0  0  0  0  0  0  0  0
   -4.6459    1.0066    0.0000 C   0  0  0  0  0  0  0  0  0  0  0  0
   -3.2169    0.1816    0.0000 C   0  0  0  0  0  0  0  0  0  0  0  0
   -2.5025   -0.2309    0.0000 C   0  0  0  0  0  0  0  0  0  0  0  0
   -1.7880    0.1816    0.0000 C   0  0  0  0  0  0  0  0  0  0  0  0
   -1.0735   -0.2309    0.0000 C   0  0  0  0  0  0  0  0  0  0  0  0
   -1.7880    1.0066    0.0000 C   0  0  0  0  0  0  0  0  0  0  0  0
   -0.3591    0.1816    0.0000 C   0  0  0  0  0  0  0  0  0  0  0  0
    0.3554   -0.2309    0.0000 C   0  0  0  0  0  0  0  0  0  0  0  0
    1.0699    0.1816    0.0000 C   0  0  0  0  0  0  0  0  0  0  0  0
    1.7844   -0.2309    0.0000 C   0  0  0  0  0  0  0  0  0  0  0  0
    2.4988    0.1816    0.0000 C   0  0  0  0  0  0  0  0  0  0  0  0
    1.7844   -1.0559    0.0000 C   0  0  0  0  0  0  0  0  0  0  0  0
    3.2133   -0.2309    0.0000 C   0  0  0  0  0  0  0  0  0  0  0  0
    3.9278    0.1816    0.0000 C   0  0  0  0  0  0  0  0  0  0  0  0
    4.6422   -0.2309    0.0000 C   0  0  0  0  0  0  0  0  0  0  0  0
    5.3567    0.1816    0.0000 C   0  0  0  0  0  0  0  0  0  0  0  0
    4.6422   -1.0559    0.0000 C   0  0  0  0  0  0  0  0  0  0  0  0
    6.0712   -0.2309    0.0000 C   0  0  0  0  0  0  0  0  0  0  0  0
    6.7857    0.1816    0.0000 C   0  0  0  0  0  0  0  0  0  0  0  0
    7.5001    1.4191    0.0000 C   0  0  0  0  0  0  0  0  0  0  0  0
    8.2146    0.1816    0.0000 C   0  0  0  0  0  0  0  0  0  0  0  0
    8.2146    1.0066    0.0000 C   0  0  0  0  0  0  0  0  0  0  0  0
   -6.7893   -1.0559    0.0000 C   0  0  0  0  0  0  0  0  0  0  0  0
   -6.0748   -1.4684    0.0000 C   0  0  0  0  0  0  0  0  0  0  0  0
    6.0712    1.4191    0.0000 C   0  0  0  0  0  0  0  0  0  0  0  0
    6.7857    1.0066    0.0000 C   0  0  0  0  0  0  0  0  0  0  0  0
   -7.9163    0.8961    0.0000 C   0  0  0  0  0  0  0  0  0  0  0  0
   -7.5038    0.1816    0.0000 C   0  0  0  0  0  0  0  0  0  0  0  0
   -7.0913    0.8961    0.0000 C   0  0  0  0  0  0  0  0  0  0  0  0
    7.0876   -0.9453    0.0000 C   0  0  0  0  0  0  0  0  0  0  0  0
    7.5001   -0.2309    0.0000 C   0  0  0  0  0  0  0  0  0  0  0  0
    7.9126   -0.9453    0.0000 C   0  0  0  0  0  0  0  0  0  0  0  0
    0.0000    0.0000    0.0000 H   0  0  0  0  0  0  0  0  0  0  0  0
    0.0000    0.0000    0.0000 H   0  0  0  0  0  0  0  0  0  0  0  0
    0.0000    0.0000    0.0000 H   0  0  0  0  0  0  0  0  0  0  0  0
    0.0000    0.0000    0.0000 H   0  0  0  0  0  0  0  0  0  0  0  0
    0.0000    0.0000    0.0000 H   0  0  0  0  0  0  0  0  0  0  0  0
    0.0000    0.0000    0.0000 H   0  0  0  0  0  0  0  0  0  0  0  0
    0.0000    0.0000    0.0000 H   0  0  0  0  0  0  0  0  0  0  0  0
    0.0000    0.0000    0.0000 H   0  0  0  0  0  0  0  0  0  0  0  0
    0.0000    0.0000    0.0000 H   0  0  0  0  0  0  0  0  0  0  0  0
    0.0000    0.0000    0.0000 H   0  0  0  0  0  0  0  0  0  0  0  0
    0.0000    0.0000    0.0000 H   0  0  0  0  0  0  0  0  0  0  0  0
    0.0000    0.0000    0.0000 H   0  0  0  0  0  0  0  0  0  0  0  0
    0.0000    0.0000    0.0000 H   0  0  0  0  0  0  0  0  0  0  0  0
    0.0000    0.0000    0.0000 H   0  0  0  0  0  0  0  0  0  0  0  0
    0.0000    0.0000    0.0000 H   0  0  0  0  0  0  0  0  0  0  0  0
    0.0000    0.0000    0.0000 H   0  0  0  0  0  0  0  0  0  0  0  0
    0.0000    0.0000    0.0000 H   0  0  0  0  0  0  0  0  0  0  0  0
    0.0000    0.0000    0.0000 H   0  0  0  0  0  0  0  0  0  0  0  0
    0.0000    0.0000    0.0000 H   0  0  0  0  0  0  0  0  0  0  0  0
    0.0000    0.0000    0.0000 H   0  0  0  0  0  0  0  0  0  0  0  0
    0.0000    0.0000    0.0000 H   0  0  0  0  0  0  0  0  0  0  0  0
    0.0000    0.0000    0.0000 H   0  0  0  0  0  0  0  0  0  0  0  0
    0.0000    0.0000    0.0000 H   0  0  0  0  0  0  0  0  0  0  0  0
    0.0000    0.0000    0.0000 H   0  0  0  0  0  0  0  0  0  0  0  0
    0.0000    0.0000    0.0000 H   0  0  0  0  0  0  0  0  0  0  0  0
    0.0000    0.0000    0.0000 H   0  0  0  0  0  0  0  0  0  0  0  0
    0.0000    0.0000    0.0000 H   0  0  0  0  0  0  0  0  0  0  0  0
    0.0000    0.0000    0.0000 H   0  0  0  0  0  0  0  0  0  0  0  0
    0.0000    0.0000    0.0000 H   0  0  0  0  0  0  0  0  0  0  0  0
    0.0000    0.0000    0.0000 H   0  0  0  0  0  0  0  0  0  0  0  0
    0.0000    0.0000    0.0000 H   0  0  0  0  0  0  0  0  0  0  0  0
    0.0000    0.0000    0.0000 H   0  0  0  0  0  0  0  0  0  0  0  0
    0.0000    0.0000    0.0000 H   0  0  0  0  0  0  0  0  0  0  0  0
    0.0000    0.0000    0.0000 H   0  0  0  0  0  0  0  0  0  0  0  0
    0.0000    0.0000    0.0000 H   0  0  0  0  0  0  0  0  0  0  0  0
    0.0000    0.0000    0.0000 H   0  0  0  0  0  0  0  0  0  0  0  0
    0.0000    0.0000    0.0000 H   0  0  0  0  0  0  0  0  0  0  0  0
    0.0000    0.0000    0.0000 H   0  0  0  0  0  0  0  0  0  0  0  0
    0.0000    0.0000    0.0000 H   0  0  0  0  0  0  0  0  0  0  0  0
    0.0000    0.0000    0.0000 H   0  0  0  0  0  0  0  0  0  0  0  0
    0.0000    0.0000    0.0000 H   0  0  0  0  0  0  0  0  0  0  0  0
    0.0000    0.0000    0.0000 H   0  0  0  0  0  0  0  0  0  0  0  0
    0.0000    0.0000    0.0000 H   0  0  0  0  0  0  0  0  0  0  0  0
    0.0000    0.0000    0.0000 H   0  0  0  0  0  0  0  0  0  0  0  0
    0.0000    0.0000    0.0000 H   0  0  0  0  0  0  0  0  0  0  0  0
    0.0000    0.0000    0.0000 H   0  0  0  0  0  0  0  0  0  0  0  0
    0.0000    0.0000    0.0000 H   0  0  0  0  0  0  0  0  0  0  0  0
    0.0000    0.0000    0.0000 H   0  0  0  0  0  0  0  0  0  0  0  0
    0.0000    0.0000    0.0000 H   0  0  0  0  0  0  0  0  0  0  0  0
    0.0000    0.0000    0.0000 H   0  0  0  0  0  0  0  0  0  0  0  0
    0.0000    0.0000    0.0000 H   0  0  0  0  0  0  0  0  0  0  0  0
    0.0000    0.0000    0.0000 H   0  0  0  0  0  0  0  0  0  0  0  0
    0.0000    0.0000    0.0000 H   0  0  0  0  0  0  0  0  0  0  0  0
    0.0000    0.0000    0.0000 H   0  0  0  0  0  0  0  0  0  0  0  0
    0.0000    0.0000    0.0000 H   0  0  0  0  0  0  0  0  0  0  0  0
    0.0000    0.0000    0.0000 H   0  0  0  0  0  0  0  0  0  0  0  0
  1 31  2  0
  1 36  1  0
  1  2  1  0
 31  3  1  0
 36  4  1  0
  2  5  2  0
  3  6  1  0
  5  7  1  0
  7  8  2  0
  7  9  1  0
  8 10  1  0
 10 11  2  0
 11 12  1  0
 12 13  2  0
 12 14  1  0
 13 15  1  0
 15 16  2  0
 16 17  1  0
 17 18  2  0
 18 19  1  0
 18 20  1  0
 19 21  2  0
 21 22  1  0
 22 23  2  0
 23 24  1  0
 23 25  1  0
 24 26  2  0
 26 27  1  0
 27 34  2  0
 27 39  1  0
 34 28  1  0
 39 29  1  0
 28 30  1  0
  4  6  1  0
 29 30  1  0
 31 32  1  0
 34 33  1  0
 36 35  1  0
 36 37  1  0
 39 38  1  0
 39 40  1  0
  2 41  1  0
  3 42  1  0
  3 43  1  0
  4 44  1  0
  4 45  1  0
  5 46  1  0
  6 47  1  0
  6 48  1  0
  8 49  1  0
  9 50  1  0
  9 51  1  0
  9 52  1  0
 10 53  1  0
 11 54  1  0
 13 55  1  0
 14 56  1  0
 14 57  1  0
 14 58  1  0
 15 59  1  0
 16 60  1  0
 17 61  1  0
 19 62  1  0
 20 63  1  0
 20 64  1  0
 20 65  1  0
 21 66  1  0
 22 67  1  0
 24 68  1  0
 25 69  1  0
 25 70  1  0
 25 71  1  0
 26 72  1  0
 28 73  1  0
 28 74  1  0
 29 75  1  0
 29 76  1  0
 30 77  1  0
 30 78  1  0
 32 79  1  0
 32 80  1  0
 32 81  1  0
 33 82  1  0
 33 83  1  0
 33 84  1  0
 35 85  1  0
 35 86  1  0
 35 87  1  0
 37 88  1  0
 37 89  1  0
 37 90  1  0
 38 91  1  0
 38 92  1  0
 38 93  1  0
 40 94  1  0
 40 95  1  0
 40 96  1  0
M  END
>  <ALOGPS_LOGP>  (1) 
9.72

>  <ALOGPS_LOGS>  (1) 
-6.14

>  <ALOGPS_SOLUBILITY>  (1) 
3.91e-04 g/l

>  <DATABASE_ID>  (1) 
DB06755

>  <DATABASE_NAME>  (1) 
drugbank

>  <DRUGBANK_ID>  (1) 
DB06755

>  <DRUG_GROUPS>  (1) 
approved; nutraceutical

>  <EXACT_MASS>  (1) 
536.438201803

>  <FORMULA>  (1) 
C40H56

>  <GENERIC_NAME>  (1) 
Beta carotene

>  <INCHI_IDENTIFIER>  (1) 
InChI=1S/C40H56/c1-31(19-13-21-33(3)25-27-37-35(5)23-15-29-39(37,7)8)17-11-12-18-32(2)20-14-22-34(4)26-28-38-36(6)24-16-30-40(38,9)10/h11-14,17-22,25-28H,15-16,23-24,29-30H2,1-10H3/b12-11+,19-13+,20-14+,27-25+,28-26+,31-17+,32-18+,33-21+,34-22+

>  <INCHI_KEY>  (1) 
OENHQHLEOONYIE-JLTXGRSLSA-N

>  <JCHEM_ACCEPTOR_COUNT>  (1) 
0

>  <JCHEM_ATOM_COUNT>  (1) 
96

>  <JCHEM_AVERAGE_POLARIZABILITY>  (1) 
71.84136004580817

>  <JCHEM_BIOAVAILABILITY>  (1) 
0

>  <JCHEM_DONOR_COUNT>  (1) 
0

>  <JCHEM_FORMAL_CHARGE>  (1) 
0

>  <JCHEM_GHOSE_FILTER>  (1) 
0

>  <JCHEM_IUPAC>  (1) 
1,3,3-trimethyl-2-[(1E,3E,5E,7E,9E,11E,13E,15E,17E)-3,7,12,16-tetramethyl-18-(2,6,6-trimethylcyclohex-1-en-1-yl)octadeca-1,3,5,7,9,11,13,15,17-nonaen-1-yl]cyclohex-1-ene

>  <JCHEM_LOGP>  (1) 
11.124081100000001

>  <JCHEM_MDDR_LIKE_RULE>  (1) 
0

>  <JCHEM_NUMBER_OF_RINGS>  (1) 
2

>  <JCHEM_PHYSIOLOGICAL_CHARGE>  (1) 
0

>  <JCHEM_POLAR_SURFACE_AREA>  (1) 
0.0

>  <JCHEM_REFRACTIVITY>  (1) 
191.61180000000013

>  <JCHEM_ROTATABLE_BOND_COUNT>  (1) 
10

>  <JCHEM_RULE_OF_FIVE>  (1) 
0

>  <JCHEM_TRADITIONAL_IUPAC>  (1) 
β-carotene

>  <JCHEM_VEBER_RULE>  (1) 
1

>  <MOLECULAR_WEIGHT>  (1) 
536.888

>  <PRODUCTS>  (1) 
A.B.C. Formula #1; Absorbene; Acti-carotene + Zn Caplet; Acti-retinol & Zn Caplet; Active FE; Am Caps; B-plus - Tab; Beta A 10000 Cap; Beta Carotene; Beta Carotene  -  Capsule  25000 Iu; Beta Carotene - Tab 25000iu; Beta Carotene 10 000 - Tab 10000I.U.; Beta Carotene 10 000 Iu; Beta Carotene 10,000 Iu; Beta Carotene 10000 I.U.  -  Capsule; Beta Carotene 10000 I.U. Cap; Beta Carotene 10000 I.U. Tablets; Beta Carotene 10000 U.I.; Beta Carotene 10000I.U. Dietary Supplement; Beta Carotene 10000unit Tab; Beta Carotene 25,000 I.U. Tab; Beta Carotene 25,000iu Caplet; Beta Carotene 25000 Caplet; Beta Carotene 25000 I.U.; Beta Carotene 25000 I.U. Tablets; Beta Carotene 25000 U.I.; Beta Carotene 25000I.U. Dietary Supplement; Beta Carotene 30,000 Iu; Beta Carotene Cap 10000unit; Beta Carotene Cap 25000I.U.; Beta Carotene Cap 25000unit; Beta Carotene Cap 30000unit; Beta Carotene Caplet 25000iu; Beta Carotene Capsules U.S.P. 10000 I.U.; Beta Carotene Capsules U.S.P. 25000I.U.; Beta Carotene Extra Forte Cap 25000; Beta Carotene Extra Forte-cap; Beta Carotene Gelule Cap 10000unit; Beta Carotene Plus; Beta Carotene Provitamin A With D; Beta Carotene Supplement; Beta Carotene Tab 10000unit; Beta Carotene Tab 25000 Unit; Beta Carotene Tab 25000unit; Beta Carotene Tab 30000units; Beta Carotene Tablets 10000 Iu; Beta Carotene Tablets 25000I.U.; Beta Green Enriching Formula; Beta Marine Caplet; Beta-carotene  10000 U.I.  -  Capsule; Beta-carotene 10,000 Iu With Vitamins C & E; Beta-carotene 25000 Plus Zinc Caplet; Beta-carotene Cap 25000unit; Beta-carotene Capsules; Beta-carotene Capsules 10000unit; Beta-retinol + Zinc Caplet; Betacarotene 10000 Iu; Betacarotene 25000 Iu; Betafant Tab; Betatene 20 Lp 20; Bio Bronze Cap 924unit; Bodysmarts With Vitamins A, C and E; C-plus - Tab; Caro Caps 5.9mg; Carotene Capsules 10,000 Iu; Cellular Formula; Central-vite 18 Essential; Century Complete; Chewable Beta-carotene 5000 I.U.(3mg) Tab; Children's Chewable Multivitamin and Multimineral; Chlorotene-beta Carotene Tab 12500unit; Complete Multivitamins and Minerals Tablets Timed Release; Derma-force; Dr. Chen's Men's Formula; E & I Formulae; E.S.T. Complex; EC + Complex; Earthpals Children's Chewables Multi-vitamin & Mineral Tablets; Enrich Core Pack - Children Vitamin and Mineral Supplement; Evc - Liq; Evc Liquid Vitamins A,c,b6 With Beta Caro&zn; Extra P.N. Vitamin-mineral Drink Mix; Fem - Protect; Floriva; Formula 14 Dietary Supplement; Formula Cw; Formula Cw-caplet; Formula Im-vitamins and Minerals Tab; Formula O; Fusion Activator Formula Tab; G.A.S. Complex; Gnc Natural Source Beta-carotene 6mg Softcap; Guardyn Tab; I-care Multivitamin and Multimineral Tablets; IV-8 Formula; Icaps; Icaps Time Release; Imm Formula Cap; Iron Polysaccharides Folic Acid DHA; Itabs Plus; Kama Caze Syrup; Kanga-kid Multi-vitamin & Mineral; L.I.P. Complex; Multi - N.T.O.x Formula - Tab; Multi Nt-OX; Multi Vitamin - Mineral; Multi Vitamines - Liq; Multi-vitamin Dietary Supplement; Multivitamines Et Mineraux Reguliers / Regular Multivitamins and Minerals; Multivitamins and Minerals - Complete; Multivitamins and Multiminerals Formula Regular Tablet; Munit-E Tablet; Natavite; Natural Source Beta Carotene Cap 25000iu; Natural Source Betacarotene 25000 Iu; Nutrilite Double X; Ocuvite Vitamin and Mineral Supplement; Onccor; One A Day Advance Adults; One A Day Advance Adults 50+; One A Day Advance Fem; Optivite Vitamin and Mineral Supplement Tablet; Original Bioscal Forte Multi-vitamin Supplement Capsules; P.N.P. Vitamin Drink; P.R.O. Complex; PM Caps; PNV Ferrous Fumarate Docusate Folic Acid; PNV Prenatal Plus Multivitamin; PNV-First; Paramettes Beta Carotene Cap 25000iu; Perfect Harvest; Pour Ma Santé; PreNatal 19; PrePLUS; PreTAB; Pregvit; Pregvit Folic 4; Pregvit Folic 5; Prenatal Plus; Prenatal Plus Iron; Prenatal Vitamins Plus Low Iron; Prenate Elite; Prenate Star; Pro-ace; Right Choice A.M. Multi Formula - Caplet; Se-Natal 19; Se-Natal 19 Chewable; Sincera - Tablets; Somavit Brand Vitamins and Minerals Complex; Spectrum 2 Cap; Super 7 Vitamin and Mineral Supplement; Super Charged Energy; Super Kids Chewable Multivitamin Multimineral (chewable Tablets); Super-A Vitamins With Selenium Dietary Supplement; Super-cell; Supplement De Multivitamines Infusion Arome Fruits Rouges; TriAdvance; Trinatal GT; Usana Megavitamin Tablets - Tab; V-V Dietary Supplement; Virt-Pn; Vita Day Tab; Vitafol Ultra; Vitalife  -  Capsule; Vitamin E + 3 (extra Strength); Vitamin E + 3 Extra Strength With Zinc; Vtb Vitamin and Mineral Supplement; Webber Natural Source Beta Carotene Cap; Women's Change Formula; Women's Formula; Zinc With B-carotene Tab; healthy mamaBE WELL ROUNDED BE WELL ROUNDED

>  <SMILES>  (1) 
C\C(\C=C\C=C(/C)\C=C\C1=C(C)CCCC1(C)C)=C/C=C/C=C(\C)/C=C/C=C(\C)/C=C/C1=C(C)CCCC1(C)C

>  <SYNONYMS>  (1) 
beta-carotene; Betacarotene

$$$$
