
     RDKit          2D

 66 71  0  0  0  0  0  0  0  0999 V2000
   14.6735   -4.4011    0.0000 C   0  0  0  0  0  0  0  0  0  0  0  0
   14.3464   -3.6438    0.0000 O   0  0  0  0  0  0  0  0  0  0  0  0
   13.5250   -3.7208    0.0000 C   0  0  0  0  0  0  0  0  0  0  0  0
   13.3445   -4.5258    0.0000 O   0  0  0  0  0  0  0  0  0  0  0  0
   14.0544   -4.9463    0.0000 C   0  0  0  0  0  0  0  0  0  0  0  0
   13.1240   -3.2609    0.0000 O   0  0  0  0  0  0  0  0  0  0  0  0
   14.1314   -5.7676    0.0000 C   0  0  0  0  0  0  0  0  0  0  0  0
   15.4785   -4.5816    0.0000 C   0  0  0  0  0  0  0  0  0  0  0  0
   15.7246   -5.3690    0.0000 O   0  0  0  0  0  0  0  0  0  0  0  0
   16.5296   -5.5495    0.0000 C   0  0  0  0  0  0  0  0  0  0  0  0
   17.0884   -4.9427    0.0000 O   0  0  0  0  0  0  0  0  0  0  0  0
   16.7758   -6.3369    0.0000 C   0  0  0  0  0  0  0  0  0  0  0  0
   17.5808   -6.5174    0.0000 C   0  0  0  0  0  0  0  0  0  0  0  0
   17.8269   -7.3049    0.0000 C   0  0  0  0  0  0  0  0  0  0  0  0
   16.2169   -6.9438    0.0000 C   0  0  0  0  0  0  0  0  0  0  0  0
   16.4631   -7.7312    0.0000 C   0  0  0  0  0  0  0  0  0  0  0  0
   17.2681   -7.9117    0.0000 C   0  0  0  0  0  0  0  0  0  0  0  0
   18.6519   -7.3140    0.0000 N   0  0  0  0  0  0  0  0  0  0  0  0
   18.9155   -6.5323    0.0000 C   0  0  0  0  0  0  0  0  0  0  0  0
   18.2535   -6.0400    0.0000 N   0  0  0  0  0  0  0  0  0  0  0  0
   18.2627   -5.2151    0.0000 C   0  0  0  0  0  0  0  0  0  0  0  0
   18.9817   -4.8106    0.0000 C   0  0  0  0  0  0  0  0  0  0  0  0
   19.7029   -6.2861    0.0000 O   0  0  0  0  0  0  0  0  0  0  0  0
   19.8303   -7.1109    0.0000 C   0  0  0  0  0  0  0  0  0  0  0  0
   20.6089   -7.3839    0.0000 C   0  0  0  0  0  0  0  0  0  0  0  0
   18.9908   -3.9857    0.0000 C   0  0  0  0  0  0  0  0  0  0  0  0
   19.7099   -3.5811    0.0000 C   0  0  0  0  0  0  0  0  0  0  0  0
   19.6915   -5.2310    0.0000 C   0  0  0  0  0  0  0  0  0  0  0  0
   20.4105   -4.8265    0.0000 C   0  0  0  0  0  0  0  0  0  0  0  0
   20.4197   -4.0015    0.0000 C   0  0  0  0  0  0  0  0  0  0  0  0
   21.1388   -3.5970    0.0000 C   0  0  0  0  0  0  0  0  0  0  0  0
   21.1479   -2.7721    0.0000 C   0  0  0  0  0  0  0  0  0  0  0  0
   21.8669   -2.3675    0.0000 C   0  0  0  0  0  0  0  0  0  0  0  0
   21.8486   -4.0175    0.0000 C   0  0  0  0  0  0  0  0  0  0  0  0
   22.5676   -3.6129    0.0000 C   0  0  0  0  0  0  0  0  0  0  0  0
   22.5768   -2.7880    0.0000 C   0  0  0  0  0  0  0  0  0  0  0  0
   20.4381   -2.3516    0.0000 C   0  0  0  0  0  0  0  0  0  0  0  0
   20.3610   -1.5303    0.0000 N   0  0  0  0  0  0  0  0  0  0  0  0
   19.5560   -1.3498    0.0000 C   0  0  0  0  0  0  0  0  0  0  0  0
   19.1356   -2.0597    0.0000 O   0  0  0  0  0  0  0  0  0  0  0  0
   19.6807   -2.6788    0.0000 N   0  0  0  0  0  0  0  0  0  0  0  0
   19.1435   -0.6353    0.0000 O   0  0  0  0  0  0  0  0  0  0  0  0
    0.0000    0.0000    0.0000 H   0  0  0  0  0  0  0  0  0  0  0  0
    0.0000    0.0000    0.0000 H   0  0  0  0  0  0  0  0  0  0  0  0
    0.0000    0.0000    0.0000 H   0  0  0  0  0  0  0  0  0  0  0  0
    0.0000    0.0000    0.0000 H   0  0  0  0  0  0  0  0  0  0  0  0
    0.0000    0.0000    0.0000 H   0  0  0  0  0  0  0  0  0  0  0  0
    0.0000    0.0000    0.0000 H   0  0  0  0  0  0  0  0  0  0  0  0
    0.0000    0.0000    0.0000 H   0  0  0  0  0  0  0  0  0  0  0  0
    0.0000    0.0000    0.0000 H   0  0  0  0  0  0  0  0  0  0  0  0
    0.0000    0.0000    0.0000 H   0  0  0  0  0  0  0  0  0  0  0  0
    0.0000    0.0000    0.0000 H   0  0  0  0  0  0  0  0  0  0  0  0
    0.0000    0.0000    0.0000 H   0  0  0  0  0  0  0  0  0  0  0  0
    0.0000    0.0000    0.0000 H   0  0  0  0  0  0  0  0  0  0  0  0
    0.0000    0.0000    0.0000 H   0  0  0  0  0  0  0  0  0  0  0  0
    0.0000    0.0000    0.0000 H   0  0  0  0  0  0  0  0  0  0  0  0
    0.0000    0.0000    0.0000 H   0  0  0  0  0  0  0  0  0  0  0  0
    0.0000    0.0000    0.0000 H   0  0  0  0  0  0  0  0  0  0  0  0
    0.0000    0.0000    0.0000 H   0  0  0  0  0  0  0  0  0  0  0  0
    0.0000    0.0000    0.0000 H   0  0  0  0  0  0  0  0  0  0  0  0
    0.0000    0.0000    0.0000 H   0  0  0  0  0  0  0  0  0  0  0  0
    0.0000    0.0000    0.0000 H   0  0  0  0  0  0  0  0  0  0  0  0
    0.0000    0.0000    0.0000 H   0  0  0  0  0  0  0  0  0  0  0  0
    0.0000    0.0000    0.0000 H   0  0  0  0  0  0  0  0  0  0  0  0
    0.0000    0.0000    0.0000 H   0  0  0  0  0  0  0  0  0  0  0  0
    0.0000    0.0000    0.0000 H   0  0  0  0  0  0  0  0  0  0  0  0
  1  2  1  0
  2  3  1  0
  3  4  1  0
  4  5  1  0
  5  1  2  0
  3  6  2  0
  5  7  1  0
  1  8  1  0
  8  9  1  0
  9 10  1  0
 10 11  2  0
 10 12  1  0
 12 13  1  0
 12 15  2  0
 15 16  1  0
 16 17  2  0
 17 14  1  0
 14 18  1  0
 18 19  2  0
 19 20  1  0
 20 13  1  0
 20 21  1  0
 21 22  1  0
 13 14  2  0
 19 23  1  0
 23 24  1  0
 24 25  1  0
 22 26  2  0
 26 27  1  0
 22 28  1  0
 28 29  2  0
 29 30  1  0
 30 27  2  0
 30 31  1  0
 31 32  1  0
 32 33  2  0
 31 34  2  0
 34 35  1  0
 35 36  2  0
 36 33  1  0
 32 37  1  0
 37 38  1  0
 38 39  1  0
 39 40  1  0
 40 41  1  0
 41 37  2  0
 39 42  2  0
  7 43  1  0
  7 44  1  0
  7 45  1  0
  8 46  1  0
  8 47  1  0
 15 48  1  0
 16 49  1  0
 17 50  1  0
 21 51  1  0
 21 52  1  0
 24 53  1  0
 24 54  1  0
 25 55  1  0
 25 56  1  0
 25 57  1  0
 26 58  1  0
 27 59  1  0
 28 60  1  0
 29 61  1  0
 33 62  1  0
 34 63  1  0
 35 64  1  0
 36 65  1  0
 38 66  1  0
M  END
>  <ALOGPS_LOGP>  (1) 
4.94

>  <ALOGPS_LOGS>  (1) 
-4.91

>  <ALOGPS_SOLUBILITY>  (1) 
7.03e-03 g/l

>  <DATABASE_ID>  (1) 
DB08822

>  <DATABASE_NAME>  (1) 
drugbank

>  <DRUGBANK_ID>  (1) 
DB08822

>  <DRUG_GROUPS>  (1) 
approved

>  <EXACT_MASS>  (1) 
568.159413764

>  <FORMULA>  (1) 
C30H24N4O8

>  <GENERIC_NAME>  (1) 
Azilsartan medoxomil

>  <INCHI_IDENTIFIER>  (1) 
InChI=1S/C30H24N4O8/c1-3-38-28-31-23-10-6-9-22(27(35)39-16-24-17(2)40-30(37)41-24)25(23)34(28)15-18-11-13-19(14-12-18)20-7-4-5-8-21(20)26-32-29(36)42-33-26/h4-14H,3,15-16H2,1-2H3,(H,32,33,36)

>  <INCHI_KEY>  (1) 
QJFSABGVXDWMIW-UHFFFAOYSA-N

>  <JCHEM_ACCEPTOR_COUNT>  (1) 
7

>  <JCHEM_AVERAGE_POLARIZABILITY>  (1) 
57.72969691881576

>  <JCHEM_BIOAVAILABILITY>  (1) 
0

>  <JCHEM_DONOR_COUNT>  (1) 
1

>  <JCHEM_FORMAL_CHARGE>  (1) 
0

>  <JCHEM_GHOSE_FILTER>  (1) 
0

>  <JCHEM_IUPAC>  (1) 
(5-methyl-2-oxo-2H-1,3-dioxol-4-yl)methyl 2-ethoxy-1-({4-[2-(5-oxo-4,5-dihydro-1,2,4-oxadiazol-3-yl)phenyl]phenyl}methyl)-1H-1,3-benzodiazole-7-carboxylate

>  <JCHEM_LOGP>  (1) 
6.0344982279999995

>  <JCHEM_MDDR_LIKE_RULE>  (1) 
1

>  <JCHEM_NUMBER_OF_RINGS>  (1) 
6

>  <JCHEM_PHYSIOLOGICAL_CHARGE>  (1) 
0

>  <JCHEM_PKA_STRONGEST_ACIDIC>  (1) 
9.210067351109982

>  <JCHEM_PKA_STRONGEST_BASIC>  (1) 
1.7461108232107339

>  <JCHEM_POLAR_SURFACE_AREA>  (1) 
139.57000000000002

>  <JCHEM_REFRACTIVITY>  (1) 
149.51829999999998

>  <JCHEM_ROTATABLE_BOND_COUNT>  (1) 
10

>  <JCHEM_RULE_OF_FIVE>  (1) 
0

>  <JCHEM_TRADITIONAL_IUPAC>  (1) 
azilsartan medoxomil

>  <JCHEM_VEBER_RULE>  (1) 
0

>  <MOLECULAR_WEIGHT>  (1) 
568.5336

>  <PRODUCTS>  (1) 
Edarbi; Edarbyclor

>  <SECONDARY_ACCESSION_NUMBERS>  (1) 
DB05358

>  <SMILES>  (1) 
CCOC1=NC2=C(N1CC1=CC=C(C=C1)C1=CC=CC=C1C1=NOC(=O)N1)C(=CC=C2)C(=O)OCC1=C(C)OC(=O)O1

>  <SYNONYMS>  (1) 
Azilsartan; Azilsartan kamedoxomil; Azilsartan médoxomil; Azilsartán medoxomilo; Azilsartanum medoxomilum

$$$$
