 
     RDKit          2D

 31 33  0  0  0  0  0  0  0  0999 V2000
   15.4857   -9.4819    0.0000 N   0  0  0  0  0  0  0  0  0  0  0  0
   16.3138   -9.4819    0.0000 C   0  0  0  0  0  0  0  0  0  0  0  0
   14.9888  -10.1444    0.0000 C   0  0  0  0  0  0  0  0  0  0  0  0
   14.9888   -8.8194    0.0000 C   0  0  0  0  0  0  0  0  0  0  0  0
   16.7278   -8.7366    0.0000 C   0  0  0  0  0  0  0  0  0  0  0  0
   16.7278  -10.1858    0.0000 C   0  0  0  0  0  0  0  0  0  0  0  0
   14.2021   -9.8959    0.0000 C   0  0  0  0  0  0  0  0  0  0  0  0
   15.2787  -10.9311    0.0000 O   0  0  0  0  0  0  0  0  0  0  0  0
   14.2021   -9.0678    0.0000 C   0  0  0  0  0  0  0  0  0  0  0  0
   15.2372   -8.0327    0.0000 O   0  0  0  0  0  0  0  0  0  0  0  0
   17.5560   -8.7366    0.0000 N   0  0  0  0  0  0  0  0  0  0  0  0
   16.3138   -8.0327    0.0000 O   0  0  0  0  0  0  0  0  0  0  0  0
   17.5974  -10.1858    0.0000 C   0  0  0  0  0  0  0  0  0  0  0  0
   13.4982  -10.3100    0.0000 C   0  0  0  0  0  0  0  0  0  0  0  0
   13.4982   -8.6538    0.0000 C   0  0  0  0  0  0  0  0  0  0  0  0
   17.9700   -9.4405    0.0000 C   0  0  0  0  0  0  0  0  0  0  0  0
   12.7943   -9.8959    0.0000 C   0  0  0  0  0  0  0  0  0  0  0  0
   12.7943   -9.0678    0.0000 C   0  0  0  0  0  0  0  0  0  0  0  0
   18.7981   -9.4405    0.0000 O   0  0  0  0  0  0  0  0  0  0  0  0
   13.4982   -7.8257    0.0000 N   0  0  0  0  0  0  0  0  0  0  0  0
    0.0000    0.0000    0.0000 H   0  0  0  0  0  0  0  0  0  0  0  0
    0.0000    0.0000    0.0000 H   0  0  0  0  0  0  0  0  0  0  0  0
    0.0000    0.0000    0.0000 H   0  0  0  0  0  0  0  0  0  0  0  0
    0.0000    0.0000    0.0000 H   0  0  0  0  0  0  0  0  0  0  0  0
    0.0000    0.0000    0.0000 H   0  0  0  0  0  0  0  0  0  0  0  0
    0.0000    0.0000    0.0000 H   0  0  0  0  0  0  0  0  0  0  0  0
    0.0000    0.0000    0.0000 H   0  0  0  0  0  0  0  0  0  0  0  0
    0.0000    0.0000    0.0000 H   0  0  0  0  0  0  0  0  0  0  0  0
    0.0000    0.0000    0.0000 H   0  0  0  0  0  0  0  0  0  0  0  0
    0.0000    0.0000    0.0000 H   0  0  0  0  0  0  0  0  0  0  0  0
    0.0000    0.0000    0.0000 H   0  0  0  0  0  0  0  0  0  0  0  0
  1  2  1  0
  1  3  1  0
  1  4  1  0
  2  5  1  0
  2  6  1  0
  3  7  1  0
  3  8  2  0
  4  9  1  0
  4 10  2  0
  5 11  1  0
  5 12  2  0
  6 13  1  0
  7 14  2  0
  9 15  2  0
 11 16  1  0
 14 17  1  0
 15 18  1  0
 16 19  2  0
  7  9  1  0
 13 16  1  0
 17 18  2  0
 15 20  1  0
  2 21  1  0
  6 22  1  0
  6 23  1  0
 11 24  1  0
 13 25  1  0
 13 26  1  0
 14 27  1  0
 17 28  1  0
 18 29  1  0
 20 30  1  0
 20 31  1  0
M  END
>  <ALOGPS_LOGP>  (1) 
0.02

>  <ALOGPS_LOGS>  (1) 
-2.03

>  <ALOGPS_SOLUBILITY>  (1) 
2.57e+00 g/l

>  <DATABASE_ID>  (1) 
DB08910

>  <DATABASE_NAME>  (1) 
drugbank

>  <DRUGBANK_ID>  (1) 
DB08910

>  <DRUG_GROUPS>  (1) 
approved

>  <EXACT_MASS>  (1) 
273.074955855

>  <FORMULA>  (1) 
C13H11N3O4

>  <GENERIC_NAME>  (1) 
Pomalidomide

>  <INCHI_IDENTIFIER>  (1) 
InChI=1S/C13H11N3O4/c14-7-3-1-2-6-10(7)13(20)16(12(6)19)8-4-5-9(17)15-11(8)18/h1-3,8H,4-5,14H2,(H,15,17,18)

>  <INCHI_KEY>  (1) 
UVSMNLNDYGZFPF-UHFFFAOYSA-N

>  <INTERNATIONAL_BRANDS>  (1) 
Imnovid

>  <JCHEM_ACCEPTOR_COUNT>  (1) 
5

>  <JCHEM_AVERAGE_POLARIZABILITY>  (1) 
25.812774920377443

>  <JCHEM_BIOAVAILABILITY>  (1) 
1

>  <JCHEM_DONOR_COUNT>  (1) 
2

>  <JCHEM_FORMAL_CHARGE>  (1) 
0

>  <JCHEM_GHOSE_FILTER>  (1) 
1

>  <JCHEM_IUPAC>  (1) 
4-amino-2-(2,6-dioxopiperidin-3-yl)-2,3-dihydro-1H-isoindole-1,3-dione

>  <JCHEM_LOGP>  (1) 
-0.16321859799999983

>  <JCHEM_MDDR_LIKE_RULE>  (1) 
0

>  <JCHEM_NUMBER_OF_RINGS>  (1) 
3

>  <JCHEM_PHYSIOLOGICAL_CHARGE>  (1) 
0

>  <JCHEM_PKA>  (1) 
16.74266805587048

>  <JCHEM_PKA_STRONGEST_ACIDIC>  (1) 
11.593277713635468

>  <JCHEM_PKA_STRONGEST_BASIC>  (1) 
1.5569195735712902

>  <JCHEM_POLAR_SURFACE_AREA>  (1) 
109.57000000000001

>  <JCHEM_REFRACTIVITY>  (1) 
69.02520000000001

>  <JCHEM_ROTATABLE_BOND_COUNT>  (1) 
1

>  <JCHEM_RULE_OF_FIVE>  (1) 
1

>  <JCHEM_TRADITIONAL_IUPAC>  (1) 
pomalidomide

>  <JCHEM_VEBER_RULE>  (1) 
0

>  <MOLECULAR_WEIGHT>  (1) 
273.2441

>  <PRODUCTS>  (1) 
Imnovid; Pomalyst

>  <SMILES>  (1) 
NC1=CC=CC2=C1C(=O)N(C1CCC(=O)NC1=O)C2=O

$$$$
