
     RDKit          2D

 27 27  0  0  0  0  0  0  0  0999 V2000
   14.9738   -9.4875    0.0000 C   0  0  0  0  0  0  0  0  0  0  0  0
   14.2725   -9.0750    0.0000 C   0  0  0  0  0  0  0  0  0  0  0  0
   14.9738  -10.3125    0.0000 C   0  0  0  0  0  0  0  0  0  0  0  0
   15.7163   -9.0750    0.0000 C   0  0  0  0  0  0  0  0  0  0  0  0
   13.5713   -9.4875    0.0000 C   0  0  0  0  0  0  0  0  0  0  0  0
   15.7163  -10.7250    0.0000 C   0  0  0  0  0  0  0  0  0  0  0  0
   16.4175   -9.4875    0.0000 C   0  0  0  0  0  0  0  0  0  0  0  0
   13.5713  -10.3125    0.0000 C   0  0  0  0  0  0  0  0  0  0  0  0
   12.8288   -9.0750    0.0000 N   0  0  0  0  0  0  0  0  0  0  0  0
   16.4175  -10.3125    0.0000 C   0  0  0  0  0  0  0  0  0  0  0  0
   12.1143   -9.4875    0.0000 C   0  0  0  0  0  0  0  0  0  0  0  0
   11.3997   -9.0750    0.0000 C   0  0  0  0  0  0  0  0  0  0  0  0
   10.6853   -9.4875    0.0000 Cl  0  0  0  0  0  0  0  0  0  0  0  0
   11.3997   -8.2500    0.0000 Cl  0  0  0  0  0  0  0  0  0  0  0  0
   11.3997   -9.9000    0.0000 Cl  0  0  0  0  0  0  0  0  0  0  0  0
    0.0000    0.0000    0.0000 H   0  0  0  0  0  0  0  0  0  0  0  0
    0.0000    0.0000    0.0000 H   0  0  0  0  0  0  0  0  0  0  0  0
    0.0000    0.0000    0.0000 H   0  0  0  0  0  0  0  0  0  0  0  0
    0.0000    0.0000    0.0000 H   0  0  0  0  0  0  0  0  0  0  0  0
    0.0000    0.0000    0.0000 H   0  0  0  0  0  0  0  0  0  0  0  0
    0.0000    0.0000    0.0000 H   0  0  0  0  0  0  0  0  0  0  0  0
    0.0000    0.0000    0.0000 H   0  0  0  0  0  0  0  0  0  0  0  0
    0.0000    0.0000    0.0000 H   0  0  0  0  0  0  0  0  0  0  0  0
    0.0000    0.0000    0.0000 H   0  0  0  0  0  0  0  0  0  0  0  0
    0.0000    0.0000    0.0000 H   0  0  0  0  0  0  0  0  0  0  0  0
    0.0000    0.0000    0.0000 H   0  0  0  0  0  0  0  0  0  0  0  0
    0.0000    0.0000    0.0000 H   0  0  0  0  0  0  0  0  0  0  0  0
  1  2  1  0
  1  3  2  0
  1  4  1  0
  2  5  1  0
  3  6  1  0
  4  7  2  0
  5  8  1  0
  5  9  1  0
  6 10  2  0
  7 10  1  0
  9 11  2  0
 11 12  1  0
 12 13  1  0
 12 14  1  0
 12 15  1  0
  2 16  1  0
  2 17  1  0
  3 18  1  0
  4 19  1  0
  5 20  1  0
  6 21  1  0
  7 22  1  0
  8 23  1  0
  8 24  1  0
  8 25  1  0
 10 26  1  0
 11 27  1  0
M  END
>  <DATABASE_ID>  (1) 
DB08924

>  <DATABASE_NAME>  (1) 
drugbank

>  <DRUGBANK_ID>  (1) 
DB08924

>  <DRUG_GROUPS>  (1) 
approved

>  <EXACT_MASS>  (1) 
263.00353251

>  <FORMULA>  (1) 
C11H12Cl3N

>  <GENERIC_NAME>  (1) 
Amfecloral

>  <INCHI_IDENTIFIER>  (1) 
InChI=1S/C11H12Cl3N/c1-9(15-8-11(12,13)14)7-10-5-3-2-4-6-10/h2-6,8-9H,7H2,1H3/b15-8+

>  <INCHI_KEY>  (1) 
VBZDETYCYXPOAK-OVCLIPMQSA-N

>  <INTERNATIONAL_BRANDS>  (1) 
Acutran

>  <JCHEM_ACCEPTOR_COUNT>  (1) 
1

>  <JCHEM_AVERAGE_POLARIZABILITY>  (1) 
25.357229176336975

>  <JCHEM_BIOAVAILABILITY>  (1) 
1

>  <JCHEM_DONOR_COUNT>  (1) 
0

>  <JCHEM_FORMAL_CHARGE>  (1) 
0

>  <JCHEM_GHOSE_FILTER>  (1) 
1

>  <JCHEM_IUPAC>  (1) 
(E)-(1-phenylpropan-2-yl)(2,2,2-trichloroethylidene)amine

>  <JCHEM_LOGP>  (1) 
4.036473384666666

>  <JCHEM_MDDR_LIKE_RULE>  (1) 
0

>  <JCHEM_NUMBER_OF_RINGS>  (1) 
1

>  <JCHEM_PHYSIOLOGICAL_CHARGE>  (1) 
0

>  <JCHEM_PKA_STRONGEST_BASIC>  (1) 
4.3585141129175735

>  <JCHEM_POLAR_SURFACE_AREA>  (1) 
12.36

>  <JCHEM_REFRACTIVITY>  (1) 
67.9731

>  <JCHEM_ROTATABLE_BOND_COUNT>  (1) 
4

>  <JCHEM_RULE_OF_FIVE>  (1) 
1

>  <JCHEM_TRADITIONAL_IUPAC>  (1) 
amfecloral

>  <JCHEM_VEBER_RULE>  (1) 
1

>  <MOLECULAR_WEIGHT>  (1) 
264.579

>  <SMILES>  (1) 
CC(CC1=CC=CC=C1)\N=C\C(Cl)(Cl)Cl

>  <SYNONYMS>  (1) 
Amphecloral

$$$$
