 
     RDKit          2D

180185  0  0  1  0  0  0  0  0999 V2000
    3.0416   -7.7082    0.0000 C   0  0  0  0  0  0  0  0  0  0  0  0
    3.7500   -8.1249    0.0000 C   0  0  0  0  0  0  0  0  0  0  0  0
    4.4999   -7.7082    0.0000 C   0  0  0  0  0  0  0  0  0  0  0  0
    5.2083   -8.1249    0.0000 C   0  0  0  0  0  0  0  0  0  0  0  0
    5.9166   -7.7082    0.0000 N   0  0  0  0  0  0  0  0  0  0  0  0
    6.6666   -8.1249    0.0000 C   0  0  0  0  0  0  0  0  0  0  0  0
    7.3749   -7.7082    0.0000 C   0  0  0  0  0  0  0  0  0  0  0  0
    8.0832   -8.1249    0.0000 N   0  0  0  0  0  0  0  0  0  0  0  0
    8.8332   -7.7082    0.0000 C   0  0  0  0  0  0  0  0  0  0  0  0
    9.5416   -8.1249    0.0000 C   0  0  0  0  0  0  0  0  0  0  0  0
   10.2499   -7.7082    0.0000 C   0  0  0  0  0  0  0  0  0  0  0  0
   10.9999   -8.1249    0.0000 S   0  0  0  0  0  0  0  0  0  0  0  0
   10.9999   -8.9582    0.0000 S   0  0  0  0  0  0  0  0  0  0  0  0
   10.2915   -9.3749    0.0000 C   0  0  0  0  0  0  0  0  0  0  0  0
   10.2915  -10.2083    0.0000 C   0  0  0  0  0  0  0  0  0  0  0  0
    9.5832  -10.6248    0.0000 N   0  0  0  0  0  0  0  0  0  0  0  0
    8.8332  -10.2083    0.0000 C   0  0  0  0  0  0  0  0  0  0  0  0
    8.1249  -10.6248    0.0000 C   0  0  0  0  0  0  0  0  0  0  0  0
    7.4165  -10.2083    0.0000 N   0  0  0  0  0  0  0  0  0  0  0  0
    6.6666  -10.6248    0.0000 C   0  0  0  0  0  0  0  0  0  0  0  0
    5.9582  -10.2083    0.0000 C   0  0  0  0  0  0  0  0  0  0  0  0
    5.2500  -10.6248    0.0000 C   0  0  0  0  0  0  0  0  0  0  0  0
    8.8332   -9.3749    0.0000 O   0  0  0  0  0  0  0  0  0  0  0  0
    8.1249  -13.0415    0.0000 C   0  0  0  0  0  0  0  0  0  0  0  0
    6.6666  -11.4582    0.0000 O   0  0  0  0  0  0  0  0  0  0  0  0
    5.2500  -11.4582    0.0000 C   0  0  0  0  0  0  0  0  0  0  0  0
    5.9582   -9.3749    0.0000 N   0  0  0  0  0  0  0  0  0  0  0  0
    5.2083   -8.9582    0.0000 C   0  0  0  0  0  0  0  0  0  0  0  0
    6.6666   -8.8332    0.0000 O   0  0  0  0  0  0  0  0  0  0  0  0
    7.3749   -6.8750    0.0000 C   0  0  0  0  0  0  0  0  0  0  0  0
    8.8332   -6.8750    0.0000 O   0  0  0  0  0  0  0  0  0  0  0  0
    9.5416   -8.8332    0.0000 N   0  0  0  0  0  0  0  0  0  0  0  0
    8.0832   -6.4583    0.0000 S   0  0  0  0  0  0  0  0  0  0  0  0
   10.9999  -10.6248    0.0000 C   0  0  0  0  0  0  0  0  0  0  0  0
   11.7499  -10.2083    0.0000 N   0  0  0  0  0  0  0  0  0  0  0  0
   12.4582  -10.6248    0.0000 C   0  0  0  0  0  0  0  0  0  0  0  0
   13.1665  -10.2083    0.0000 C   0  0  0  0  0  0  0  0  0  0  0  0
   13.9165  -10.6248    0.0000 N   0  0  0  0  0  0  0  0  0  0  0  0
   10.9999  -11.4582    0.0000 O   0  0  0  0  0  0  0  0  0  0  0  0
    4.5416  -11.8748    0.0000 C   0  0  0  0  0  0  0  0  0  0  0  0
    4.5416  -12.7082    0.0000 C   0  0  0  0  0  0  0  0  0  0  0  0
    5.2500  -13.1249    0.0000 C   0  0  0  0  0  0  0  0  0  0  0  0
    5.9582  -12.7082    0.0000 C   0  0  0  0  0  0  0  0  0  0  0  0
    5.9582  -11.8748    0.0000 C   0  0  0  0  0  0  0  0  0  0  0  0
    5.2500  -13.9581    0.0000 O   0  0  0  0  0  0  0  0  0  0  0  0
    4.5416   -9.3749    0.0000 O   0  0  0  0  0  0  0  0  0  0  0  0
   13.1665   -9.3749    0.0000 O   0  0  0  0  0  0  0  0  0  0  0  0
   13.9165  -11.4582    0.0000 C   0  0  0  0  0  0  0  0  0  0  0  0
   14.7082  -11.7082    0.0000 C   0  0  0  0  0  0  0  0  0  0  0  0
   15.1664  -11.0415    0.0000 C   0  0  0  0  0  0  0  0  0  0  0  0
   14.7082  -10.3748    0.0000 C   0  0  0  0  0  0  0  0  0  0  0  0
   14.9582   -9.5832    0.0000 C   0  0  0  0  0  0  0  0  0  0  0  0
   15.7915   -9.4165    0.0000 O   0  0  0  0  0  0  0  0  0  0  0  0
   14.4165   -8.9582    0.0000 N   0  0  0  0  0  0  0  0  0  0  0  0
   14.4165   -8.1249    0.0000 C   0  0  0  0  0  0  0  0  0  0  0  0
   15.1248   -7.7082    0.0000 C   0  0  0  0  0  0  0  0  0  0  0  0
   13.7081   -7.7082    0.0000 C   0  0  0  0  0  0  0  0  0  0  0  0
   15.8331   -8.1249    0.0000 O   0  0  0  0  0  0  0  0  0  0  0  0
   15.1248   -6.8750    0.0000 N   0  0  0  0  0  0  0  0  0  0  0  0
   14.4165   -6.4583    0.0000 C   0  0  0  0  0  0  0  0  0  0  0  0
   13.7081   -6.8750    0.0000 C   0  0  0  0  0  0  0  0  0  0  0  0
   14.4165   -5.6249    0.0000 C   0  0  0  0  0  0  0  0  0  0  0  0
   13.0415   -6.4583    0.0000 S   0  0  0  0  0  0  0  0  0  0  0  0
   15.1248   -5.2083    0.0000 N   0  0  0  0  0  0  0  0  0  0  0  0
   15.8331   -5.6249    0.0000 C   0  0  0  0  0  0  0  0  0  0  0  0
   13.7081   -5.2083    0.0000 O   0  0  0  0  0  0  0  0  0  0  0  0
   15.8331   -6.4583    0.0000 C   0  0  0  0  0  0  0  0  0  0  0  0
   16.5832   -6.8750    0.0000 N   0  0  0  0  0  0  0  0  0  0  0  0
   16.5832   -7.7082    0.0000 C   0  0  0  0  0  0  0  0  0  0  0  0
   16.5415   -5.2083    0.0000 C   0  0  0  0  0  0  0  0  0  0  0  0
   17.2498   -5.6249    0.0000 O   0  0  0  0  0  0  0  0  0  0  0  0
   16.5415   -4.3749    0.0000 C   0  0  0  0  0  0  0  0  0  0  0  0
    8.8332  -13.4581    0.0000 S   0  0  0  0  0  0  0  0  0  0  0  0
   14.9165  -13.4581    0.0000 S   0  0  0  0  0  0  0  0  0  0  0  0
   17.2914   -8.1249    0.0000 C   0  0  0  0  0  0  0  0  0  0  0  0
   17.2914  -11.8332    0.0000 N   0  0  0  0  0  0  0  0  0  0  0  0
   16.5832   -6.0416    0.0000 O   0  0  0  0  0  0  0  0  0  0  0  0
   12.1248  -11.4582    0.0000 C   0  0  0  0  0  0  0  0  0  0  0  0
   12.5415  -12.1665    0.0000 C   0  0  0  0  0  0  0  0  0  0  0  0
   13.3332  -12.1665    0.0000 O   0  0  0  0  0  0  0  0  0  0  0  0
   12.0831  -12.9165    0.0000 N   0  0  0  0  0  0  0  0  0  0  0  0
   17.9998   -7.7082    0.0000 O   0  0  0  0  0  0  0  0  0  0  0  0
   16.4165  -12.4998    0.0000 C   0  0  0  0  0  0  0  0  0  0  0  0
   15.5831  -12.4998    0.0000 C   0  0  0  0  0  0  0  0  0  0  0  0
   16.8331  -13.2082    0.0000 C   0  0  0  0  0  0  0  0  0  0  0  0
   17.6665  -13.2082    0.0000 N   0  0  0  0  0  0  0  0  0  0  0  0
   18.3747  -13.6665    0.0000 C   0  0  0  0  0  0  0  0  0  0  0  0
   19.1248  -13.2499    0.0000 C   0  0  0  0  0  0  0  0  0  0  0  0
   16.4165  -13.9165    0.0000 O   0  0  0  0  0  0  0  0  0  0  0  0
   18.3747  -14.4998    0.0000 C   0  0  0  0  0  0  0  0  0  0  0  0
   17.6665  -14.9165    0.0000 O   0  0  0  0  0  0  0  0  0  0  0  0
   19.0831  -14.9165    0.0000 O   0  0  0  0  0  0  0  0  0  0  0  0
   19.1248  -12.4165    0.0000 C   0  0  0  0  0  0  0  0  0  0  0  0
   19.8330  -11.9998    0.0000 C   0  0  0  0  0  0  0  0  0  0  0  0
   19.8330  -11.1665    0.0000 C   0  0  0  0  0  0  0  0  0  0  0  0
   19.1248  -10.7498    0.0000 C   0  0  0  0  0  0  0  0  0  0  0  0
   18.3747  -11.1665    0.0000 C   0  0  0  0  0  0  0  0  0  0  0  0
   18.3747  -11.9998    0.0000 C   0  0  0  0  0  0  0  0  0  0  0  0
   19.1248   -9.9166    0.0000 O   0  0  0  0  0  0  0  0  0  0  0  0
    2.3334   -8.1249    0.0000 O   0  0  0  0  0  0  0  0  0  0  0  0
    3.0416   -6.8750    0.0000 O   0  0  0  0  0  0  0  0  0  0  0  0
    0.0000    0.0000    0.0000 H   0  0  0  0  0  0  0  0  0  0  0  0
    0.0000    0.0000    0.0000 H   0  0  0  0  0  0  0  0  0  0  0  0
    0.0000    0.0000    0.0000 H   0  0  0  0  0  0  0  0  0  0  0  0
    0.0000    0.0000    0.0000 H   0  0  0  0  0  0  0  0  0  0  0  0
    0.0000    0.0000    0.0000 H   0  0  0  0  0  0  0  0  0  0  0  0
    0.0000    0.0000    0.0000 H   0  0  0  0  0  0  0  0  0  0  0  0
    0.0000    0.0000    0.0000 H   0  0  0  0  0  0  0  0  0  0  0  0
    0.0000    0.0000    0.0000 H   0  0  0  0  0  0  0  0  0  0  0  0
    0.0000    0.0000    0.0000 H   0  0  0  0  0  0  0  0  0  0  0  0
    0.0000    0.0000    0.0000 H   0  0  0  0  0  0  0  0  0  0  0  0
    0.0000    0.0000    0.0000 H   0  0  0  0  0  0  0  0  0  0  0  0
    0.0000    0.0000    0.0000 H   0  0  0  0  0  0  0  0  0  0  0  0
    0.0000    0.0000    0.0000 H   0  0  0  0  0  0  0  0  0  0  0  0
    0.0000    0.0000    0.0000 H   0  0  0  0  0  0  0  0  0  0  0  0
    0.0000    0.0000    0.0000 H   0  0  0  0  0  0  0  0  0  0  0  0
    0.0000    0.0000    0.0000 H   0  0  0  0  0  0  0  0  0  0  0  0
    0.0000    0.0000    0.0000 H   0  0  0  0  0  0  0  0  0  0  0  0
    0.0000    0.0000    0.0000 H   0  0  0  0  0  0  0  0  0  0  0  0
    0.0000    0.0000    0.0000 H   0  0  0  0  0  0  0  0  0  0  0  0
    0.0000    0.0000    0.0000 H   0  0  0  0  0  0  0  0  0  0  0  0
    0.0000    0.0000    0.0000 H   0  0  0  0  0  0  0  0  0  0  0  0
    0.0000    0.0000    0.0000 H   0  0  0  0  0  0  0  0  0  0  0  0
    0.0000    0.0000    0.0000 H   0  0  0  0  0  0  0  0  0  0  0  0
    0.0000    0.0000    0.0000 H   0  0  0  0  0  0  0  0  0  0  0  0
    0.0000    0.0000    0.0000 H   0  0  0  0  0  0  0  0  0  0  0  0
    0.0000    0.0000    0.0000 H   0  0  0  0  0  0  0  0  0  0  0  0
    0.0000    0.0000    0.0000 H   0  0  0  0  0  0  0  0  0  0  0  0
    0.0000    0.0000    0.0000 H   0  0  0  0  0  0  0  0  0  0  0  0
    0.0000    0.0000    0.0000 H   0  0  0  0  0  0  0  0  0  0  0  0
    0.0000    0.0000    0.0000 H   0  0  0  0  0  0  0  0  0  0  0  0
    0.0000    0.0000    0.0000 H   0  0  0  0  0  0  0  0  0  0  0  0
    0.0000    0.0000    0.0000 H   0  0  0  0  0  0  0  0  0  0  0  0
    0.0000    0.0000    0.0000 H   0  0  0  0  0  0  0  0  0  0  0  0
    0.0000    0.0000    0.0000 H   0  0  0  0  0  0  0  0  0  0  0  0
    0.0000    0.0000    0.0000 H   0  0  0  0  0  0  0  0  0  0  0  0
    0.0000    0.0000    0.0000 H   0  0  0  0  0  0  0  0  0  0  0  0
    0.0000    0.0000    0.0000 H   0  0  0  0  0  0  0  0  0  0  0  0
    0.0000    0.0000    0.0000 H   0  0  0  0  0  0  0  0  0  0  0  0
    0.0000    0.0000    0.0000 H   0  0  0  0  0  0  0  0  0  0  0  0
    0.0000    0.0000    0.0000 H   0  0  0  0  0  0  0  0  0  0  0  0
    0.0000    0.0000    0.0000 H   0  0  0  0  0  0  0  0  0  0  0  0
    0.0000    0.0000    0.0000 H   0  0  0  0  0  0  0  0  0  0  0  0
    0.0000    0.0000    0.0000 H   0  0  0  0  0  0  0  0  0  0  0  0
    0.0000    0.0000    0.0000 H   0  0  0  0  0  0  0  0  0  0  0  0
    0.0000    0.0000    0.0000 H   0  0  0  0  0  0  0  0  0  0  0  0
    0.0000    0.0000    0.0000 H   0  0  0  0  0  0  0  0  0  0  0  0
    0.0000    0.0000    0.0000 H   0  0  0  0  0  0  0  0  0  0  0  0
    0.0000    0.0000    0.0000 H   0  0  0  0  0  0  0  0  0  0  0  0
    0.0000    0.0000    0.0000 H   0  0  0  0  0  0  0  0  0  0  0  0
    0.0000    0.0000    0.0000 H   0  0  0  0  0  0  0  0  0  0  0  0
    0.0000    0.0000    0.0000 H   0  0  0  0  0  0  0  0  0  0  0  0
    0.0000    0.0000    0.0000 H   0  0  0  0  0  0  0  0  0  0  0  0
    0.0000    0.0000    0.0000 H   0  0  0  0  0  0  0  0  0  0  0  0
    0.0000    0.0000    0.0000 H   0  0  0  0  0  0  0  0  0  0  0  0
    0.0000    0.0000    0.0000 H   0  0  0  0  0  0  0  0  0  0  0  0
    0.0000    0.0000    0.0000 H   0  0  0  0  0  0  0  0  0  0  0  0
    0.0000    0.0000    0.0000 H   0  0  0  0  0  0  0  0  0  0  0  0
    0.0000    0.0000    0.0000 H   0  0  0  0  0  0  0  0  0  0  0  0
    0.0000    0.0000    0.0000 H   0  0  0  0  0  0  0  0  0  0  0  0
    0.0000    0.0000    0.0000 H   0  0  0  0  0  0  0  0  0  0  0  0
    0.0000    0.0000    0.0000 H   0  0  0  0  0  0  0  0  0  0  0  0
    0.0000    0.0000    0.0000 H   0  0  0  0  0  0  0  0  0  0  0  0
    0.0000    0.0000    0.0000 H   0  0  0  0  0  0  0  0  0  0  0  0
    0.0000    0.0000    0.0000 H   0  0  0  0  0  0  0  0  0  0  0  0
    0.0000    0.0000    0.0000 H   0  0  0  0  0  0  0  0  0  0  0  0
    0.0000    0.0000    0.0000 H   0  0  0  0  0  0  0  0  0  0  0  0
    0.0000    0.0000    0.0000 H   0  0  0  0  0  0  0  0  0  0  0  0
    0.0000    0.0000    0.0000 H   0  0  0  0  0  0  0  0  0  0  0  0
    0.0000    0.0000    0.0000 H   0  0  0  0  0  0  0  0  0  0  0  0
    0.0000    0.0000    0.0000 H   0  0  0  0  0  0  0  0  0  0  0  0
    0.0000    0.0000    0.0000 H   0  0  0  0  0  0  0  0  0  0  0  0
    0.0000    0.0000    0.0000 H   0  0  0  0  0  0  0  0  0  0  0  0
    0.0000    0.0000    0.0000 H   0  0  0  0  0  0  0  0  0  0  0  0
    0.0000    0.0000    0.0000 H   0  0  0  0  0  0  0  0  0  0  0  0
    0.0000    0.0000    0.0000 H   0  0  0  0  0  0  0  0  0  0  0  0
    0.0000    0.0000    0.0000 H   0  0  0  0  0  0  0  0  0  0  0  0
    0.0000    0.0000    0.0000 H   0  0  0  0  0  0  0  0  0  0  0  0
    0.0000    0.0000    0.0000 H   0  0  0  0  0  0  0  0  0  0  0  0
    0.0000    0.0000    0.0000 H   0  0  0  0  0  0  0  0  0  0  0  0
  1  2  1  0
  2  3  1  0
  4  3  1  6
  4  5  1  0
  5  6  1  0
  6  7  1  0
  7  8  1  0
  8  9  1  0
  9 10  1  0
 10 11  1  0
 11 12  1  0
 12 13  1  0
 13 14  1  0
 15 14  1  0
 15 16  1  0
 16 17  1  0
 17 18  1  0
 18 19  1  0
 19 20  1  0
 20 21  1  0
 21 22  1  6
 17 23  2  0
 18 24  1  0
 20 25  2  0
 22 26  1  0
 21 27  1  0
 27 28  1  0
 28  4  1  0
  6 29  2  0
  7 30  1  0
  9 31  2  0
 10 32  1  1
 30 33  1  0
 15 34  1  0
 34 35  1  0
 35 36  1  0
 36 37  1  0
 37 38  1  0
 34 39  2  0
 26 40  2  0
 40 41  1  0
 41 42  2  0
 42 43  1  0
 43 44  2  0
 26 44  1  0
 42 45  1  0
 28 46  2  0
 37 47  2  0
 38 48  1  0
 48 49  1  0
 49 50  1  0
 50 51  1  0
 51 38  1  0
 51 52  1  0
 52 53  2  0
 52 54  1  0
 54 55  1  0
 55 56  1  0
 55 57  1  1
 56 58  2  0
 56 59  1  0
 60 59  1  0
 60 61  1  0
 60 62  1  0
 33 63  1  0
 62 64  1  0
 64 65  1  0
 62 66  2  0
 65 67  1  0
 67 68  1  0
 68 69  1  0
 65 70  1  0
 70 71  1  6
 70 72  1  0
 24 73  1  0
 73 74  1  0
 69 75  1  0
 75 76  1  0
 63 61  1  0
 67 77  2  0
 36 78  1  1
 78 79  1  0
 79 80  2  0
 79 81  1  0
 75 82  2  0
 83 76  1  0
 83 84  1  0
 84 74  1  0
 83 85  1  1
 85 86  1  0
 87 86  1  1
 87 88  1  0
 85 89  2  0
 87 90  1  0
 90 91  1  0
 90 92  2  0
 88 93  1  0
 93 94  2  0
 94 95  1  0
 95 96  2  0
 96 97  1  0
 97 98  2  0
 93 98  1  0
 96 99  1  0
  1100  1  0
  1101  2  0
  2102  1  0
  2103  1  0
  3104  1  0
  3105  1  0
  4106  1  0
  5107  1  0
  7108  1  1
  8109  1  0
 10110  1  0
 11111  1  0
 11112  1  0
 14113  1  0
 14114  1  0
 15115  1  6
 16116  1  0
 18117  1  1
 19118  1  0
 21119  1  0
 22120  1  0
 22121  1  0
 24122  1  0
 24123  1  0
 27124  1  0
 30125  1  0
 30126  1  0
 32127  1  0
 32128  1  0
 35129  1  0
 36130  1  0
 40131  1  0
 41132  1  0
 43133  1  0
 44134  1  0
 45135  1  0
 48136  1  0
 48137  1  0
 49138  1  0
 49139  1  0
 50140  1  0
 50141  1  0
 51142  1  1
 54143  1  0
 55144  1  0
 57145  1  0
 57146  1  0
 57147  1  0
 59148  1  0
 60149  1  6
 61150  1  0
 61151  1  0
 64152  1  0
 65153  1  6
 68154  1  0
 69155  1  0
 69156  1  0
 70157  1  0
 71158  1  0
 72159  1  0
 72160  1  0
 72161  1  0
 76162  1  0
 78163  1  0
 78164  1  0
 81165  1  0
 81166  1  0
 83167  1  0
 84168  1  0
 84169  1  0
 86170  1  0
 87171  1  0
 88172  1  0
 88173  1  0
 91174  1  0
 94175  1  0
 95176  1  0
 97177  1  0
 98178  1  0
 99179  1  0
100180  1  0
M  END
>  <ALOGPS_LOGP>  (1) 
-1.46

>  <ALOGPS_LOGS>  (1) 
-3.34

>  <ALOGPS_SOLUBILITY>  (1) 
7.01e-01 g/l

>  <DATABASE_ID>  (1) 
DB08890

>  <DATABASE_NAME>  (1) 
drugbank

>  <DRUGBANK_ID>  (1) 
DB08890

>  <DRUG_GROUPS>  (1) 
approved

>  <EXACT_MASS>  (1) 
1525.389918805

>  <FORMULA>  (1) 
C59H79N15O21S6

>  <GENERIC_NAME>  (1) 
Linaclotide

>  <INCHI_IDENTIFIER>  (1) 
InChI=1S/C59H79N15O21S6/c1-26-47(82)69-41-25-101-99-22-38-52(87)65-33(13-14-45(80)81)49(84)66-34(16-28-5-9-30(76)10-6-28)50(85)71-40(54(89)72-39(23-97-96-20-32(60)48(83)70-38)53(88)67-35(18-43(61)78)58(93)74-15-3-4-42(74)56(91)63-26)24-100-98-21-37(64-44(79)19-62-57(92)46(27(2)75)73-55(41)90)51(86)68-36(59(94)95)17-29-7-11-31(77)12-8-29/h5-12,26-27,32-42,46,75-77H,3-4,13-25,60H2,1-2H3,(H2,61,78)(H,62,92)(H,63,91)(H,64,79)(H,65,87)(H,66,84)(H,67,88)(H,68,86)(H,69,82)(H,70,83)(H,71,85)(H,72,89)(H,73,90)(H,80,81)(H,94,95)/t26-,27+,32-,33-,34-,35-,36-,37-,38-,39-,40-,41-,42-,46-/m0/s1

>  <INCHI_KEY>  (1) 
KXGCNMMJRFDFNR-WDRJZQOASA-N

>  <JCHEM_ACCEPTOR_COUNT>  (1) 
22

>  <JCHEM_AVERAGE_POLARIZABILITY>  (1) 
145.88207204757333

>  <JCHEM_BIOAVAILABILITY>  (1) 
0

>  <JCHEM_DONOR_COUNT>  (1) 
19

>  <JCHEM_FORMAL_CHARGE>  (1) 
0

>  <JCHEM_GHOSE_FILTER>  (1) 
0

>  <JCHEM_IUPAC>  (1) 
(2S)-2-{[(1R,4S,7S,13S,16R,21R,24R,27S,30S,33R,38R,44S)-21-amino-13-(carbamoylmethyl)-27-(2-carboxyethyl)-44-[(1R)-1-hydroxyethyl]-30-[(4-hydroxyphenyl)methyl]-4-methyl-3,6,12,15,22,25,28,31,40,43,46,51-dodecaoxo-18,19,35,36,48,49-hexathia-2,5,11,14,23,26,29,32,39,42,45,52-dodecaazatetracyclo[22.22.4.2¹⁶,³³.0⁷,¹¹]dopentacontan-38-yl]formamido}-3-(4-hydroxyphenyl)propanoic acid

>  <JCHEM_LOGP>  (1) 
-10.775399084955938

>  <JCHEM_MDDR_LIKE_RULE>  (1) 
1

>  <JCHEM_NUMBER_OF_RINGS>  (1) 
6

>  <JCHEM_PHYSIOLOGICAL_CHARGE>  (1) 
-1

>  <JCHEM_PKA>  (1) 
3.712929266649017

>  <JCHEM_PKA_STRONGEST_ACIDIC>  (1) 
3.0586409681293456

>  <JCHEM_PKA_STRONGEST_BASIC>  (1) 
7.647622494667203

>  <JCHEM_POLAR_SURFACE_AREA>  (1) 
573.9099999999999

>  <JCHEM_REFRACTIVITY>  (1) 
368.0006000000002

>  <JCHEM_ROTATABLE_BOND_COUNT>  (1) 
13

>  <JCHEM_RULE_OF_FIVE>  (1) 
0

>  <JCHEM_TRADITIONAL_IUPAC>  (1) 
(2S)-2-{[(1R,4S,7S,13S,16R,21R,24R,27S,30S,33R,38R,44S)-21-amino-13-(carbamoylmethyl)-27-(2-carboxyethyl)-44-[(1R)-1-hydroxyethyl]-30-[(4-hydroxyphenyl)methyl]-4-methyl-3,6,12,15,22,25,28,31,40,43,46,51-dodecaoxo-18,19,35,36,48,49-hexathia-2,5,11,14,23,26,29,32,39,42,45,52-dodecaazatetracyclo[22.22.4.2¹⁶,³³.0⁷,¹¹]dopentacontan-38-yl]formamido}-3-(4-hydroxyphenyl)propanoic acid

>  <JCHEM_VEBER_RULE>  (1) 
0

>  <MOLECULAR_WEIGHT>  (1) 
1526.736

>  <PRODUCTS>  (1) 
Constella; Linzess

>  <SALTS>  (1) 
Linaclotide Acetate

>  <SECONDARY_ACCESSION_NUMBERS>  (1) 
DB05566

>  <SMILES>  (1) 
[H][C@]1(CSSC[C@]2([H])NC(=O)[C@H](CC3=CC=C(O)C=C3)NC(=O)[C@H](CCC(O)=O)NC(=O)[C@@H]3CSSC[C@H](NC(=O)[C@H](C)NC(=O)[C@@H]4CCCN4C(=O)[C@H](CC(N)=O)NC(=O)[C@H](CSSC[C@H](N)C(=O)N3)NC2=O)C(=O)N[C@@]([H])([C@@H](C)O)C(=O)NCC(=O)N1)C(=O)N[C@@H](CC1=CC=C(O)C=C1)C(O)=O

$$$$
