
     RDKit          2D

 42 44  0  0  0  0  0  0  0  0999 V2000
   -0.2849    0.1127    0.0000 C   0  0  0  0  0  0  0  0  0  0  0  0
   -1.0009    0.4396    0.0000 C   0  0  0  0  0  0  0  0  0  0  0  0
    0.4175    0.4396    0.0000 C   0  0  0  0  0  0  0  0  0  0  0  0
   -0.7224    1.9553    0.0000 S   0  0  0  0  0  0  0  0  0  0  0  0
   -1.2130    1.2615    0.0000 C   0  0  0  0  0  0  0  0  0  0  0  0
   -0.2849   -0.7092    0.0000 C   0  0  0  0  0  0  0  0  0  0  0  0
    0.6517    1.2925    0.0000 C   0  0  0  0  0  0  0  0  0  0  0  0
    0.1790    1.9553    0.0000 C   0  0  0  0  0  0  0  0  0  0  0  0
    1.8626   -1.1334    0.0000 N   0  0  0  0  0  0  0  0  0  0  0  0
    0.4441   -1.1334    0.0000 C   0  0  0  0  0  0  0  0  0  0  0  0
    1.0097   -0.1171    0.0000 C   0  0  0  0  0  0  0  0  0  0  0  0
   -1.5974   -0.1392    0.0000 C   0  0  0  0  0  0  0  0  0  0  0  0
    1.1555   -0.7269    0.0000 C   0  0  0  0  0  0  0  0  0  0  0  0
   -2.0129    1.4782    0.0000 C   0  0  0  0  0  0  0  0  0  0  0  0
    1.4339    1.5002    0.0000 C   0  0  0  0  0  0  0  0  0  0  0  0
    2.5917   -0.7269    0.0000 C   0  0  0  0  0  0  0  0  0  0  0  0
    1.8626   -1.9553    0.0000 C   0  0  0  0  0  0  0  0  0  0  0  0
    1.7963    0.0994    0.0000 C   0  0  0  0  0  0  0  0  0  0  0  0
   -2.3840    0.0861    0.0000 C   0  0  0  0  0  0  0  0  0  0  0  0
   -2.5917    0.8903    0.0000 C   0  0  0  0  0  0  0  0  0  0  0  0
    2.0172    0.9036    0.0000 C   0  0  0  0  0  0  0  0  0  0  0  0
    0.0000    0.0000    0.0000 H   0  0  0  0  0  0  0  0  0  0  0  0
    0.0000    0.0000    0.0000 H   0  0  0  0  0  0  0  0  0  0  0  0
    0.0000    0.0000    0.0000 H   0  0  0  0  0  0  0  0  0  0  0  0
    0.0000    0.0000    0.0000 H   0  0  0  0  0  0  0  0  0  0  0  0
    0.0000    0.0000    0.0000 H   0  0  0  0  0  0  0  0  0  0  0  0
    0.0000    0.0000    0.0000 H   0  0  0  0  0  0  0  0  0  0  0  0
    0.0000    0.0000    0.0000 H   0  0  0  0  0  0  0  0  0  0  0  0
    0.0000    0.0000    0.0000 H   0  0  0  0  0  0  0  0  0  0  0  0
    0.0000    0.0000    0.0000 H   0  0  0  0  0  0  0  0  0  0  0  0
    0.0000    0.0000    0.0000 H   0  0  0  0  0  0  0  0  0  0  0  0
    0.0000    0.0000    0.0000 H   0  0  0  0  0  0  0  0  0  0  0  0
    0.0000    0.0000    0.0000 H   0  0  0  0  0  0  0  0  0  0  0  0
    0.0000    0.0000    0.0000 H   0  0  0  0  0  0  0  0  0  0  0  0
    0.0000    0.0000    0.0000 H   0  0  0  0  0  0  0  0  0  0  0  0
    0.0000    0.0000    0.0000 H   0  0  0  0  0  0  0  0  0  0  0  0
    0.0000    0.0000    0.0000 H   0  0  0  0  0  0  0  0  0  0  0  0
    0.0000    0.0000    0.0000 H   0  0  0  0  0  0  0  0  0  0  0  0
    0.0000    0.0000    0.0000 H   0  0  0  0  0  0  0  0  0  0  0  0
    0.0000    0.0000    0.0000 H   0  0  0  0  0  0  0  0  0  0  0  0
    0.0000    0.0000    0.0000 H   0  0  0  0  0  0  0  0  0  0  0  0
    0.0000    0.0000    0.0000 H   0  0  0  0  0  0  0  0  0  0  0  0
  2  1  1  0
  3  1  1  0
  4  5  1  0
  5  2  2  0
  6  1  2  0
  7  3  2  0
  8  7  1  0
  9 13  1  0
 10  6  1  0
 11  3  1  0
 12  2  1  0
 13 10  1  0
 14  5  1  0
 15  7  1  0
 16  9  1  0
 17  9  1  0
 18 11  2  0
 19 12  2  0
 20 19  1  0
 21 18  1  0
  4  8  1  0
 21 15  2  0
 20 14  2  0
  6 22  1  0
  8 23  1  0
  8 24  1  0
 10 25  1  0
 10 26  1  0
 11 27  1  0
 12 28  1  0
 13 29  1  0
 13 30  1  0
 14 31  1  0
 15 32  1  0
 16 33  1  0
 16 34  1  0
 16 35  1  0
 17 36  1  0
 17 37  1  0
 17 38  1  0
 18 39  1  0
 19 40  1  0
 20 41  1  0
 21 42  1  0
M  END
>  <ALOGPS_LOGP>  (1) 
4.98

>  <ALOGPS_LOGS>  (1) 
-5.71

>  <ALOGPS_SOLUBILITY>  (1) 
5.72e-04 g/l

>  <DATABASE_ID>  (1) 
DB09167

>  <DATABASE_NAME>  (1) 
drugbank

>  <DRUGBANK_ID>  (1) 
DB09167

>  <DRUG_GROUPS>  (1) 
approved

>  <EXACT_MASS>  (1) 
295.139470854

>  <FORMULA>  (1) 
C19H21NS

>  <GENERIC_NAME>  (1) 
Dosulepin

>  <INCHI_IDENTIFIER>  (1) 
InChI=1S/C19H21NS/c1-20(2)13-7-11-17-16-9-4-3-8-15(16)14-21-19-12-6-5-10-18(17)19/h3-6,8-12H,7,13-14H2,1-2H3/b17-11+

>  <INCHI_KEY>  (1) 
PHTUQLWOUWZIMZ-GZTJUZNOSA-N

>  <INTERNATIONAL_BRANDS>  (1) 
Depropin; Dopress; Dothip; Dothitab; Dotopine; Elate; Espin; Harmomed; Othtric; Prothiaden; Prothiaden; Qualiaden; Singsong; Thaden; Vick-Thiaden

>  <JCHEM_ACCEPTOR_COUNT>  (1) 
1

>  <JCHEM_ATOM_COUNT>  (1) 
42

>  <JCHEM_AVERAGE_POLARIZABILITY>  (1) 
34.56803602204005

>  <JCHEM_BIOAVAILABILITY>  (1) 
1

>  <JCHEM_DONOR_COUNT>  (1) 
0

>  <JCHEM_FORMAL_CHARGE>  (1) 
0

>  <JCHEM_GHOSE_FILTER>  (1) 
1

>  <JCHEM_IUPAC>  (1) 
dimethyl({3-[(2E)-9-thiatricyclo[9.4.0.0³,⁸]pentadeca-1(15),3,5,7,11,13-hexaen-2-ylidene]propyl})amine

>  <JCHEM_LOGP>  (1) 
4.522084514333333

>  <JCHEM_MDDR_LIKE_RULE>  (1) 
0

>  <JCHEM_NUMBER_OF_RINGS>  (1) 
3

>  <JCHEM_PHYSIOLOGICAL_CHARGE>  (1) 
1

>  <JCHEM_PKA_STRONGEST_BASIC>  (1) 
9.760738579972804

>  <JCHEM_POLAR_SURFACE_AREA>  (1) 
3.24

>  <JCHEM_REFRACTIVITY>  (1) 
104.58970000000002

>  <JCHEM_ROTATABLE_BOND_COUNT>  (1) 
3

>  <JCHEM_RULE_OF_FIVE>  (1) 
1

>  <JCHEM_TRADITIONAL_IUPAC>  (1) 
trans-dothiepin

>  <JCHEM_VEBER_RULE>  (1) 
1

>  <MOLECULAR_WEIGHT>  (1) 
295.44

>  <SALTS>  (1) 
Dosulepin hydrochloride

>  <SMILES>  (1) 
CN(C)CC\C=C1/C2=CC=CC=C2CSC2=CC=CC=C12

>  <SYNONYMS>  (1) 
(3E)-3-dibenzo[b,e]thiepin-11(6H)-ylidene-N,N-dimethylpropan-1-amine; 11-(3-Dimethylaminopropylidene)-6,11-dihydrodibenzo(b,e)thiepin; Dosulepina; Dosulépine; Dosulepinum; Dothiepin; trans-dothiepin

$$$$
