
     RDKit          2D

 45 46  0  0  0  0  0  0  0  0999 V2000
   -1.4289    6.6000    0.0000 C   0  0  0  0  0  0  0  0  0  0  0  0
   -2.2539    5.7750    0.0000 C   0  0  0  0  0  0  0  0  0  0  0  0
   -0.6039    5.7750    0.0000 C   0  0  0  0  0  0  0  0  0  0  0  0
    2.8578    0.0000    0.0000 C   0  0  0  0  0  0  0  0  0  0  0  0
   -0.7144    3.7125    0.0000 C   0  0  0  0  0  0  0  0  0  0  0  0
   -2.1434    3.7125    0.0000 C   0  0  0  0  0  0  0  0  0  0  0  0
    0.0000    0.0000    0.0000 C   0  0  0  0  0  0  0  0  0  0  0  0
    0.7144    1.2375    0.0000 C   0  0  0  0  0  0  0  0  0  0  0  0
   -0.7144    4.5375    0.0000 C   0  0  0  0  0  0  0  0  0  0  0  0
   -2.1434    4.5375    0.0000 C   0  0  0  0  0  0  0  0  0  0  0  0
    0.7144   -0.4125    0.0000 C   0  0  0  0  0  0  0  0  0  0  0  0
    1.4289    0.8250    0.0000 C   0  0  0  0  0  0  0  0  0  0  0  0
   -0.7144    2.0625    0.0000 C   0  0  0  0  0  0  0  0  0  0  0  0
   -1.4289    3.3000    0.0000 C   0  0  0  0  0  0  0  0  0  0  0  0
    0.0000    0.8250    0.0000 C   0  0  0  0  0  0  0  0  0  0  0  0
   -1.4289    4.9500    0.0000 C   0  0  0  0  0  0  0  0  0  0  0  0
    1.4289    0.0000    0.0000 C   0  0  0  0  0  0  0  0  0  0  0  0
   -1.4289    2.4750    0.0000 C   0  0  0  0  0  0  0  0  0  0  0  0
   -0.7144    1.2375    0.0000 C   0  0  0  0  0  0  0  0  0  0  0  0
   -1.4289    5.7750    0.0000 C   0  0  0  0  0  0  0  0  0  0  0  0
   -2.1434    2.0625    0.0000 O   0  0  0  0  0  0  0  0  0  0  0  0
   -1.4289    0.8250    0.0000 O   0  0  0  0  0  0  0  0  0  0  0  0
    2.1434   -0.4125    0.0000 O   0  0  0  0  0  0  0  0  0  0  0  0
    0.0000    0.0000    0.0000 H   0  0  0  0  0  0  0  0  0  0  0  0
    0.0000    0.0000    0.0000 H   0  0  0  0  0  0  0  0  0  0  0  0
    0.0000    0.0000    0.0000 H   0  0  0  0  0  0  0  0  0  0  0  0
    0.0000    0.0000    0.0000 H   0  0  0  0  0  0  0  0  0  0  0  0
    0.0000    0.0000    0.0000 H   0  0  0  0  0  0  0  0  0  0  0  0
    0.0000    0.0000    0.0000 H   0  0  0  0  0  0  0  0  0  0  0  0
    0.0000    0.0000    0.0000 H   0  0  0  0  0  0  0  0  0  0  0  0
    0.0000    0.0000    0.0000 H   0  0  0  0  0  0  0  0  0  0  0  0
    0.0000    0.0000    0.0000 H   0  0  0  0  0  0  0  0  0  0  0  0
    0.0000    0.0000    0.0000 H   0  0  0  0  0  0  0  0  0  0  0  0
    0.0000    0.0000    0.0000 H   0  0  0  0  0  0  0  0  0  0  0  0
    0.0000    0.0000    0.0000 H   0  0  0  0  0  0  0  0  0  0  0  0
    0.0000    0.0000    0.0000 H   0  0  0  0  0  0  0  0  0  0  0  0
    0.0000    0.0000    0.0000 H   0  0  0  0  0  0  0  0  0  0  0  0
    0.0000    0.0000    0.0000 H   0  0  0  0  0  0  0  0  0  0  0  0
    0.0000    0.0000    0.0000 H   0  0  0  0  0  0  0  0  0  0  0  0
    0.0000    0.0000    0.0000 H   0  0  0  0  0  0  0  0  0  0  0  0
    0.0000    0.0000    0.0000 H   0  0  0  0  0  0  0  0  0  0  0  0
    0.0000    0.0000    0.0000 H   0  0  0  0  0  0  0  0  0  0  0  0
    0.0000    0.0000    0.0000 H   0  0  0  0  0  0  0  0  0  0  0  0
    0.0000    0.0000    0.0000 H   0  0  0  0  0  0  0  0  0  0  0  0
    0.0000    0.0000    0.0000 H   0  0  0  0  0  0  0  0  0  0  0  0
  9  5  2  0
 10  6  1  0
 11  7  2  0
 12  8  1  0
 14  5  1  0
 14  6  2  0
 15  7  1  0
 15  8  2  0
 16  9  1  0
 16 10  2  0
 17 11  1  0
 17 12  2  0
 18 13  1  0
 18 14  1  0
 19 13  1  0
 19 15  1  0
 20  1  1  0
 20  2  1  0
 20  3  1  0
 20 16  1  0
 21 18  2  0
 22 19  2  0
 23  4  1  0
 23 17  1  0
  1 24  1  0
  1 25  1  0
  1 26  1  0
  2 27  1  0
  2 28  1  0
  2 29  1  0
  3 30  1  0
  3 31  1  0
  3 32  1  0
  4 33  1  0
  4 34  1  0
  4 35  1  0
  5 36  1  0
  6 37  1  0
  7 38  1  0
  8 39  1  0
  9 40  1  0
 10 41  1  0
 11 42  1  0
 12 43  1  0
 13 44  1  0
 13 45  1  0
M  END
>  <ALOGPS_LOGP>  (1) 
4.98

>  <ALOGPS_LOGS>  (1) 
-5.70

>  <ALOGPS_SOLUBILITY>  (1) 
6.22e-04 g/l

>  <DATABASE_ID>  (1) 
DB09495

>  <DATABASE_NAME>  (1) 
drugbank

>  <DRUGBANK_ID>  (1) 
DB09495

>  <DRUG_GROUPS>  (1) 
approved

>  <EXACT_MASS>  (1) 
310.156894568

>  <FORMULA>  (1) 
C20H22O3

>  <GENERIC_NAME>  (1) 
Avobenzone

>  <INCHI_IDENTIFIER>  (1) 
InChI=1S/C20H22O3/c1-20(2,3)16-9-5-14(6-10-16)18(21)13-19(22)15-7-11-17(23-4)12-8-15/h5-12H,13H2,1-4H3

>  <INCHI_KEY>  (1) 
XNEFYCZVKIDDMS-UHFFFAOYSA-N

>  <JCHEM_ACCEPTOR_COUNT>  (1) 
3

>  <JCHEM_ATOM_COUNT>  (1) 
45

>  <JCHEM_AVERAGE_POLARIZABILITY>  (1) 
34.85780327493255

>  <JCHEM_BIOAVAILABILITY>  (1) 
1

>  <JCHEM_DONOR_COUNT>  (1) 
0

>  <JCHEM_FORMAL_CHARGE>  (1) 
0

>  <JCHEM_GHOSE_FILTER>  (1) 
1

>  <JCHEM_IUPAC>  (1) 
1-(4-tert-butylphenyl)-3-(4-methoxyphenyl)propane-1,3-dione

>  <JCHEM_LOGP>  (1) 
4.5647458346666685

>  <JCHEM_MDDR_LIKE_RULE>  (1) 
0

>  <JCHEM_NUMBER_OF_RINGS>  (1) 
2

>  <JCHEM_PHYSIOLOGICAL_CHARGE>  (1) 
0

>  <JCHEM_PKA_STRONGEST_ACIDIC>  (1) 
9.87709864978138

>  <JCHEM_PKA_STRONGEST_BASIC>  (1) 
-4.837519161004551

>  <JCHEM_POLAR_SURFACE_AREA>  (1) 
43.370000000000005

>  <JCHEM_REFRACTIVITY>  (1) 
91.75109999999998

>  <JCHEM_ROTATABLE_BOND_COUNT>  (1) 
6

>  <JCHEM_RULE_OF_FIVE>  (1) 
1

>  <JCHEM_TRADITIONAL_IUPAC>  (1) 
avobenzone

>  <JCHEM_VEBER_RULE>  (1) 
0

>  <MOLECULAR_WEIGHT>  (1) 
310.393

>  <PRODUCTS>  (1) 
100 SPF Cream; 1000 Roses Daily Shade Facial SPF 18; 14-day Skin Rescue SPF 30; 15 SPF Fps Premium Sunscreen; 15 SPF Fps Sunscreen Lotion écran Solaire; 15 SPF Sunscreen Uva/uvb Protection Oil-free Milky Spray; 15 SPF Sunscreen Uva/uvb Protection Vitalizing Age-defying Cream; 15 Tanning CVS; 24K Bio-Brightening Skin Tone Moisturizer SPF 30; 29 by LYDIA MONDAVI Napa Valley BROAD SPECTRUM SPF 30 D VINE DAY; 2X Sunblock SPF 50; 30 SPF; 30 SPF Fps Continuous Spray; 30 SPF Fps High Protection Sunscreen; 30 SPF Fps Kids High Protection Sunscreen; 30 SPF Fps Sunscreen Lotion écran Solaire; 30 SPF Sunscreen Uva/uvb Protection Delicate Skin Ultra Soothing Lotion; 30 SPF Sunscreen Uva/uvb Protection High Protection Age-defying Cream; 30 SPF Sunscreen Uva/uvb Protection Oil-free Milky Spray; 30 SPF/fps Sunscreen Spray écran Solaire En Vaporisateur; 3LAB Hydra Day SPF 20 Broad Spectrum Water-Based Sunscreen; 3LAB PERFECT Sunscreen SPF 50 Plus Broad Spectrum; 45 SPF Fps High Protection Sunscreen; 45 SPF Fps Sunscreen Lotion écran Solaire; 45 SPF High Protection Uva Uvb Cream; 45 SPF Sunscreen Spray; 4Life Enummi Protective Day Moisturizer SPF-15; 50 SPF-fps Sunscreen; 50+ Dry Touch CRème Protection Solaire Large Spectre Fps 50+ / Sun Protection Cream Broad Spectrum SPF 50+; 55 SPF/fps Sunscreen Lotion écran Solaire; 60 SPF Stick Protection Ciblee Uva Uvb Anthelios XL; 70 SPF Body Mist; 70 SPF Cream; 70 SPF Sunblock; 70 SPF/fps Sunscreen Lotion écran Solaire; 85 SPF Cream; A Cream SPF 30; A M Stimulus Complex SPF 25; A Perfect World SPF 25 Age Defense Moisturizer With White Tea; A Perfect World SPF 35 Uv Broad Spectrum Face Protector; A Retinol SPF 20; A-cream; A.H.C. COMPLETE CHOICE Moisture Cream; AGE Revision SPF50; AGELESS Total Rejuvenating Hand; AL00378 Alba Cool Sport Sunscreen SPF50; AL0038100 Alba HW Sunscreen Coconut Milk SPF50; AL0038100 Alba VE Sunscreen Fragrance Free SPF50; AL0038200 Alba VE Sunscreen Kids SPF50; AL0038502 Alba Tropical Fruit Kids Sunscreen SPF40; AL0039006 Alba Sport Sunscreen Fragrance Free SPF45; AL0082706 Alba Botanica HW Sunscreen Green Tea SPF45; ANEW Solar Advance Sunscreen Body Mist; ANNA LOTAN Clear Protector Free Broad Spectrum SPF 32 Sunscreen; ARTISTRY YOUTH XTEND Protecting Broad Spectrum SPF 15; ARTISTRY YOUTH XTEND Protecting Broad Spectrum SPF 15 Sunscreen; ASAP Skin Products Moisturising Daily Defense SPF 30; Absolue Creme SPF 15; Absolue Fluide SPF 15; Absolue Hand SPF 15; Absolutely Ageless Daily Moisturizer; Abyssine Cream + SPF 23; Academy Continuous SPF 50; Academy Continuous Sport SPF 50; Academy SPF 50; Academy Sport SPF 30; Academy Sport SPF 50; Academy Sports Outdoors SUNSCREEN CONTINUOUS BROAD SPECTRUM SPF 50 Water-Resistant; Academy Sports Outdoors SUNSCREEN CONTINUOUS SPORT BROAD SPECTRUM SPF 50 Water-Resistant; Acaifusion Lip Balm Broad Spectrum SPF 30 Supergoop; Active Breathable Sunblock SPF 30; Active Breathable Sunblock SPF 45; Active Protection Fresh Grapefruit Sunscreen Lip Balm; Active Protection Lemon Twist Sunscreen Lip Balm; Active Radiance Day Moisture SPF 30; Active Sport; Active Sport Family Sunscreen SPF 35; Acwell Aqua Cap Sule Sun Control; Acwell Daily Sun Control; Adaptasun CRème De Soin Solaire Mer Et Tropiques Visage Fps/SPF 25; Adaptasun CRème De Soin Solaire Visage Fps/SPF 15; Adaptasun Sun Care Face SPF 15; Adaptasun Sun Care Lotion Body/ Lait De Soin Solaire Corps SPF/fps 15; Adaptasun Sun Care Lotion Sea and Tropics Body/ Lait De Soin Solaire Mer Et Tropiques Corps SPF/ Fps 20; Adaptasun Sun Care Sea and Tropics Face SPF 25; Advanced Anti Aging Unscented with sunscreen SPF 20; Advanced Anti-Wrinkle Therapy Cicatricure; Advanced Dynamics Soothing day Moisture Broad Spectrum SPF 15 Jafra; Advanced Firming and Anti Wrinkle; Advanced Firming and Anti-Wrinkle Moisturizer Day Broad Spectrum SPF18 Sunscreen; Advanced Formula Lip Moisturizer Sunscreen SPF 25; Advanced Marine Biology Day Cream; Advanced Marine Biology Day SPF 20 La Prairie Group AG; Advanced Marine Biology Day Sunscreen Broad Spectrum SPF 20; Advanced Solutions Daily Moisturizer SPF 15; Advanced Time Zone Age Reversing Line Wrinkle Broad Spectrum SPF 15 Dry Skin; Advanced Time Zone Age Reversing Line Wrinkle Broad Spectrum SPF 15 Normal Combo Skin; Advanced Time Zone Age Reversing Line/wrinkle Oil Free Broad Spectrum SPF 15 Normal/combination Skin; Advanced Wrinkle Reducer Lotion SPF 15; Aegis Daily Facial SPF 25; Affinia Facial Moisturizer; African Extracts Rooibos Moisturising Day Cream; After Shave Broad Spectrum SPF 15; Age Balancing Moisture Broad Spectrum SPF 30 | Pa+++; Age Defying Hydrating Sunscreen SPF 30; Age Defying Moisturizer SPF 18; Age Delay - Creme Prolongateur Jeunesse - SPF 15; Age Delay Emulsion Prolongateur Jeunesse - SPF 15; Age Fitness Power 2 SPF 15; Age Minimize 3d Day Cream SPF 30 Broad Spectrum Sunscreen; Age Perfect Glow Renewal SPF 30 Day Lotion Moisturizer; Age Perfect Hydra-nutrition Ultra-nourishing Lotion; Age Renewal Deep Wrinkle Moisturizer; Age Renewal SPF 25; Age Shield Face + Moisturizing Repair; Age Shield Face Sunscreen SPF 110; Age Shield Face Sunscreen SPF 60; Age Shield Face Sunscreen SPF 85; Age-defying + Moisturizing Neck & Chest Treatment SPF 15; Age-fighting Moisturizer Sunscreen SPF 30; Ageless Results Renewing Day Cream Creme De Jour Revigorante SPF/fps 15; Ahava Active Deadsea Minerals Age Control Even Tone Moisturizer Broad Spectrum Spf20; Ahava Active Deadsea Minerals Ahava Age Control Even Tone Moisturizer Broad Spectrum SPF 20; Ahava Active Deadsea Minerals Mineral Suncare SPF 15; Ahava Active Deadsea Minerals Mineral Suncare SPF 30; Ahava Active Deadsea Minerals Mineral Suncare SPF 50; Ahava Active Deadsea Minerals Mineral Suncare SPF 50 Face; Ahava Active Deadsea Minerals Time To Energize Age Control Moisturizing Broad Spectrum Spf15; Ahava Active Deadsea Minerals Time To Hydrate Essential Lip Balm Broad Spectrum Spf15; Ahava Active Deadsea Minerals Time To Hydrate Essential Moisturizing Broad Spectrum Spf15; Ahava Age Perfecting Broad Spectrum Spf15; Alba Body Daily Shade SPF15; Alba Botanica Natural Very Emollient Sunscreen Kids SPF40; Alba Botanica Natural Very Emollient Sunscreen Sport Spray SPF40; Alba Even Advanced Sea Moss Moisturizer SPF15; Alba HW Sunscreen Soothing Aloe Vera SPF30; Alba Hawaiian Sunscreen Green Tea SPF45; Alba HawaiianDry Sunscreen SPF15; Alba VE Facial Sunscreen SPF30; Alba VE Sunscreen SPF30 Fragrance Free; Alba VE Sunscreen Sport SPF45; Algenist; All Around Safe Block Aqua Sun Gel; All Day All Year; All Day Moisture with AHAs SPF 15 Broad Spectrum Sunscreen; All Sport Non-freeze Face Protector SPF 30; All You Need + Broad Spectrum Oil Absorbing Lotion SPF 15; All You Need Continuous Action 24 Hour Moisture SPF 15 for Normal Skin; Almay Anti Aging Lip Care SPF 20; Almay Daily Moisturizer SPF 15 for Dry Skin; Almay Daily Moisturizer SPF 15 for Normal Combo Skin; Almay Daily Moisturizer SPF 15 for Oily Skin; Almay Kinetin Age Defying Daily Cream SPF 15; Almay Kinetin Age Defying Daily Lotion SPF 15; Almay Protective Lip Care SPF 25; Almay Protective Lip Care SPF 25 (shade-clear); Aloe Ice SPF 20; Aloe Ice SPF 50; Aloe Soothing Moisture Lotion SPF 15; Aloe Soothing Moisture SPF 15; Aloe Sunscreen; Aloe Up Broad Spectrum SPF 15; Aloe Up Broad Spectrum SPF 30; Aloe Up Broad Spectrum SPF 50; Aloe Up Lil Kids Continuous Sunscreen SPF 50; Aloe Up Lil Kids SPF 50; Aloe Up Natural Lip Ice Sunscreen SPF 15; Aloe Up Pro 15; Aloe Up Pro 30 Continuous Sunscreen; Aloe Up Pro 50 Continuous Sunscreen; Aloe Up Pro SPF 30 Sunscreen; Aloe Up Pro SPF 30 Ultra Sport Sunscreen; Aloe Up Pro SPF 50 Advanced Formula Ultra Sport Sunscreen; Aloe Up Pro SPF 50 Lotion; Aloe Up SPF 30 C/S Sunscreen with Aloe Vera; Aloe Up Sunscreen SPF 50; Aloespa Body Mist; Alyria Skin Optimizing System-corrective Protection-SPF 30 Mist; Ambi Essentials; Ambi Even and Clear Daily Moisturizer Sunscreen Broad Spectrum SPF30; Ambi Sunscreen; Ambient Light Body Lotion SPF 50; Ambient Light Face Cream SPF 50; Ambient Lip Shield Stick SPF 45; Ambient Ultra Light Mist Spray SPF 30; American Crew All In One Face Balm Broad Spectrum SPF 15; American Crew All-IN-one Face Balm; American Crew All-IN-one Face Balm SPF 15; Amorepacific Natural Protector; Amorepacific Resort Collection Sun Protection; Amorepacific Resort Collection Sun Protection Mist; Anew Alternative Intensive Age Treatment SPF 25 Day; Anew Clinical Absolute Even Spot Correcting Hand; Anew Clinical Skinvincible Multi-Shield; Anew Day Force Vertical Lifting Complex, SPF 15; Anew Men Daily Moisturizer; Anew Platinum Day; Anew Platinum Day Cream; Anew Rejuvenate 24 Hour Eye Moisturizer Hydratant Yeux 24 Heures SPF 25 Day; Anew Rejuvenate 24 hour Eye Moisturizer; Anew Rejuvenate Day Revitalizing; Anew Rejuvenate Day Revitalizing Cream / CRème Revitalisante SPF/fps 25 Uva/uvb; Anew Rejuvenate Day Revitalizing Cream/creme Revitalisante SPF/fps 25; Anew Reversalist Complete Renewal Day; Anew Reversalist Complete Renewal Day Cream; Anew Reversalist Complete Renewal Day Lotion; Anew Reversalist Day Renewal; Anew Reversalist Day Renewal Cream SPF Fps 25 Uva Uvb; Anew Skinvincible Day Lotion Broad Spectrum SPF 50 Sunscreen; Anew Sun Sunscreen Body Lotion; Anew Sun Sunscreen Body Mist Lotion; Anew Sun Sunscreen Face Lotion; Anew Ultimate 7S Day; Anew Ultimate Day 7s Cream; Anew Ultimate Day Multi-Performance; Anew Ultimate Day Multi-performance Cream; Anew Vitale Day; Anew Vitale Day Cream; Anew Vitale Day Lotion; Angelica Protective SPF 15; Anthelios - Lait SPF 45; Anthelios Dermo-kids; Anthelios L - Ecran Intolerances Solaires SPF 60; Anthelios L-lait Ecran Intol.solaire SPF 60; Anthelios Lotion Corps Ultra-fluide; Anthelios Mist; Anthelios S - Ecran Solaire SPF 30; Anthelios SPF 45; Anthelios Spray SPF 30; Anthelios Spray SPF 45; Anthelios Ultra-fluid Lotion; Anthelios XL Cream SPF 60; Anthelios-creme Solaire SPF 10; Anthelios-ecran Invisible SPF 20; Anthelios-lait Ecran Invisible SPF 20; Anthelios-stick Ecran SPF 30; Antherpos; Antherpos-ceralip Solaire SPF 50; Anti Aging SPF Moistruizer; Anti Aging Vitamin Complex; Anti-Aging Complex SPF 30 Merle Norman; Anti-Aging Daily Moisturizer Sunscreen Broad-Spectrum SPF 30; Anti-Aging Day Broad Spectrum SPF 30 La Prairie Group AG; Anti-Aging Day Protect SPF 22; Anti-Aging Emulsion SPF 30; Anti-Aging Eye Broad Spectrum SPF 15 la prairie Switzerland; Anti-Aging Tinted Moisturizer Broad Spectrum SPF 30; Anti-Aging Vitamin Complex 7-in-1 Broad Spectrum SPF15 Sunscreen; Anti-Wrinkle Day Cream Suncreen Broad Spectrum SPF 30; Anti-aging Complex Emulsion Broad Spectrum SPF 30; Anti-aging Cream SPF 15; Anti-aging Daily Moisturizer SPF 15; Anti-aging Day Sunscreen Broad Spectrum SPF 30; Anti-aging Eye Cream SPF 15; Anti-aging Eye Sunscreen Broad Spectrum SPF 15; Anti-aging Facial Moisturizer SPF/fps 70; Anti-aging Follow-UP Daycare SPF 15; Anti-aging Moisturizer Broad Spectrum SPF 30 | Pa+++; Anti-aging Moisturizing Complex-UV Protection; Anti-aging Sunscreen Broad Spectrum SPF 30; Anti-aging Tinted Moisturizer; Anti-brillance Lotion Toucher Sec; Anti-shine Anthelios XL Dry Touch Gel-cream; Anti-wrinkle Intensive Day Cream; Anti-wrinkle and Firming Broad Spectrum Spf18 Sunscreen; Antioxidant Daily Protectant SPF 30; Antioxidant Daily Protectant SPF 45; Antioxidant Daily Protectant SPF 50; Aquaderm-30; Aquaderm-30 Sunscreen Lotion; Aqualia Thermal Uv; Aqualumiere SPF 15; Aquaphor Lip Protectant and Sunscreen; Aquaphor Lip Repair and Protect; Aquasource Non Stop SPF 15 - Peau Normale Mixte; Aquasource Non Stop SPF 15 - Peau Seche; Aramis Lab Series Power Protector SPF 50; Arbonne International Before Sun Water Resistant Sunscreen SPF 30; Arbonne International Lip Saver Sunscreen SPF 30; Arbonne International Save Face & Body Sunscreen SPF 15; Arbonne Lip Saver Sunscreen SPF 30; Arbonne Made In The Shade Self-tanner With SPF 15; Arbonne RE9 Advanced Extra Moisture Restorative Day SPF 20; Arbonne RE9 Advanced Restorative Day Broad Spectrum SPF 20; Arbonne Save Face & Body Sunscreen SPF 15; Arbonne Water-resistant Sunscreen SPF 30; Artistry Essential Hand Treatment SPF 15; Artistry Essentials Hand Treatment; Artistry Pure White Moisturiser I; Artistry Time Defiance Day Protect CRème SPF 15; Artistry Time Defiance Day Protect Lotion SPF 15; Artistry Tinted Moisturiser SPF 15; Artistry Vi Moisture Rich Protective Moisturizer SPF 15; Artistry Vi Time Defiance Daytime Protective Creme; Artistry Youth Xtend Protecting Cream; Artistry Youth Xtend Protecting Lotion; Aruba Aloe Very Water Resistant Sunscreen SPF 50; Aubio Hydrating Lip Therapy Broad Spectrum SPF 30 Sunscreen; Aubio Life Sciences Lip; Aunt Bees Five Flavors Pineapple Coconut Lip Balm; Aunt Bees Five Flavors Sweet Almond Lip Balm; Aunt Bees Five Flavors Tangelo Lip Balm; Aunt Bees Five Flavors Wintermint Lip Balm; Aunt Bees SPF 35 Cherry Lip Balm; Aureli Broad Spectrum; Australian Gold BOAD SPECTRUM SPF 30; Australian Gold BOAD SPECTRUM SPF 50; Australian Gold BROAD SPECTRUM SPF 15; Australian Gold BROAD SPECTRUM SPF 15 Sunscreen; Australian Gold BROAD SPECTRUM SPF 30; Australian Gold BROAD SPECTRUM SPF 30 Sunscreen; Australian Gold BROAD SPECTRUM SPF 30 X-treme Sport Sunscreen; Australian Gold BROAD SPECTRUM SPF 4; Australian Gold BROAD SPECTRUM SPF 50; Australian Gold BROAD SPECTRUM SPF 50 X-treme Sport Sunscreen; Australian Gold BROAD SPECTRUM SPF 8; Australian Gold Botanical Sunscreen Broad Spectrum SPF 30 Natural; Australian Gold Botanical Sunscreen Broad Spectrum SPF 50 Natural; Australian Gold Broad Spectrum 30; Australian Gold Broad Spectrum SPF 15; Australian Gold Broad Spectrum SPF 30; Australian Gold Broad Spectrum SPF 30 Sheer Sunscreen; Australian Gold Broad Spectrum SPF 30 with invisidry Technology; Australian Gold Broad Spectrum SPF 4; Australian Gold Broad Spectrum SPF 4 Sunscreen; Australian Gold Broad Spectrum SPF 45; Australian Gold Broad Spectrum SPF 50; Australian Gold Broad Spectrum SPF 8; Australian Gold Carrot Oil Formula Broad Spectrum SPF 4; Australian Gold Exotic Blend spf8; Australian Gold Hello Kitty Broad Spectrum 50; Australian Gold Invisidry Technology Oil-Free Formula Broad Spectrum SPF 30; Australian Gold Justice SPF 50 Glitter Sunscreen; Australian Gold Mermaid SPF 50 Glitter Sunscreen; Australian Gold SPF 15 C/S Sunscreen with Bronzer; Australian Gold SPF 15 Sheer Coverage Sunscreen; Australian Gold SPF 50 Sunscreen with Instant Bronzer; Australian Gold X-treme Sport SPF 30 C/S Sunscreen; Autobronzant Creme Fps 15; Autobronzant SPF 7; Autobronzant Vapo Fps 15; Avail Body with Sunscreen; Aveda Lip Saver SPF 15; Aveeno ACTIVE NATURALS absolutely ageless leave-on day mask Broad Spectrum SPF30; Aveeno ACTIVE NATURALS positively radiant sheer daily moisturizer Broad Spectrum SPF 30; Aveeno ACTIVE NATURALS protect Plus hydrate sunscreen BROAD SPECTRUM SPF30; Aveeno Absolutely Ageless Daily Moisturizer Broad Spectrum SPF30; Aveeno Active Naturals Daily Moisturizing Broad Spectrum SPF15; Aveeno Active Naturals Daily Moisturizing Lotion; Aveeno Active Naturals Hydrosport Sunblock SPF 50; Aveeno Active Naturals Hydrosport Sunblock SPF 85; Aveeno Active Naturals Hydrosport Sunscreen Broad Spectrum SPF30; Aveeno Active Naturals Hydrosport Sunscreen Broad spectrum SPF30; Aveeno Active Naturals Hydrosport Sunscreen Lotion SPF 85; Aveeno Active Naturals Hydrosport Sunscreen Spray SPF 85; Aveeno Active Naturals Positively Ageless Day; Aveeno Active Naturals Positively Ageless Youth Perfecting Moisturizer Sunscreen Broad Spectrum SPF30; Aveeno Active Naturals Positively Radiant Daily Moisturizer; Aveeno Active Naturals Positively Radiant Daily Moisturizer Broad Spectrum SPF15; Aveeno Active Naturals Positively Radiant Daily Moisturizer SPF 15; Aveeno Active Naturals Positively Radiant Daily Moisturizer Sunscreen Broad Spectrum SPF15; Aveeno Active Naturals Positively Radiant Daily Moisturizer with sunscreen Broad Spectrum SPF30; Aveeno Active Naturals Protect + Hydrate SPF 30; Aveeno Active Naturals Protect + Hydrate SPF 45; Aveeno Active Naturals Protect + Hydrate SPF 60; Aveeno Active Naturals Protect Plus Hydrate Sunscreen Broad Spectrum SPF 70; Aveeno Active Naturals Protect Plus Hydrate Sunscreen Broad Spectrum SPF50 For Face; Aveeno Active Naturals Protect Plus Hydrate Sunscreen Broad Spectrum SPF50 for face; Aveeno Active Naturals Smart Essentials Daily Nourishing Moisturizer Sunscreen Broad Spectrum SPF30; Aveeno Active Naturals Sunscreen Lotion  SPF 45; Aveeno Active Naturals Sunscreen Lotion Face Spf60; Aveeno Active Naturals Sunscreen Lotion SPF 30; Aveeno Active Naturals Sunscreen Lotion SPF 55; Aveeno Active Naturals Sunscreen Spray SPF 30; Aveeno Active Naturals Sunscreen Spray SPF 45; Aveeno Active Naturals Ultra Calming Daily Moisturizer Sunscreen Broad Spectrum SPF15; Aveeno Active Naturals Ultra-Calming Daily Moisturizer Broad Spectrum SPF15; Aveeno Baby Continuous Protection Sunscreen Broad Spectrum SPF55; Aveeno Baby Essential Daily Care Baby and Mommy Gift Set; Aveeno Baby Sunscreen Lotion SPF 55; Aveeno Continuous Protection Face SPF100 Plus; Aveeno Continuous Protection SPF 30; Aveeno Continuous Protection SPF85; Aveeno Positively Ageless Complete Anti Aging System; Aveeno Positively Ageless Face SPF90; Aveeno Positively Ageless SPF55; Aveeno Positively Radiant Skin Moisturizer SPF 15; Aveeno Protect Plus Hydrate Sunscreen Broad Spectrum SPF30; Aveeno Protect Plus Hydrate Sunscreen Broad Spectrum SPF50; Aveeno Protect Plus Hydrate Sunscreen Broad Spectrum SPF70; Aveeno Skin Brightening Daily Treatment; Aveeno Sunblock Spray SPF 30; Aveeno Sunblock Spray SPF 45; Aveeno Sunscreen Lotion Face SPF 30; Aveeno Sunscreen Lotion SPF 100; Aveeno favorites from Positively radiant; Aveeno positively radiant targeted dark spot corrector Broad Spectrum SPF 15; Avobenzone, Homosalate, Octisalate, Octocrylene; Avobenzone, Homosalate, Octisalate, Octocrylene, Oxybenzone; Avobenzone, Octinoxate, Titanium Dioxide; Avon Age Block Environmental Protection Cream SPF 15; Avon Age Block SPF 15 - Crm Top; Avon Anew Advanced All-IN-one Max Self-adjusting Perfecting Cream Spf15; Avon Anew Advanced All-IN-one Max Self-adjusting Perfecting Lotion SPF 15; Avon Anew Force Extra Triple Lifting Day Cream SPF 15; Avon Anew Luminosity Brightening Complex SPF 15; Avon Anew Luminosity Ultra SPF 15; Avon Anew Positivity A.M. Fortifier Spf15; Avon Anew Positivity Empowering A.M. Fortifier SPF 15; Avon Anew Retroactive + Day Defense SPF 15; Avon Anew Revital - Air Complex SPF 15; Avon Anew Revital-air SPF 15; Avon Anew Ultimate Hand and Nail Cream SPF 15; Avon Broad Spectrum Sunblock Lotion SPF 15; Avon Bronzy Lip Balm SPF 15; Avon Elements Moisture Boost Daily Moisture; Avon Elements Moisture Boost Daily Moisture Lotion; Avon Elements Moisture Boost SPF.fps 15 Daily Moisture Cream; Avon Elements Skin Revitalize Instant Radiance; Avon Elements Skin Revitalize Instant Radiance Lotion; Avon Elements Youth Restoring Multi-Purpose; Avon Elements Youth-Restoring Anti-Wrinkle Moisture; Avon Eye Block Environmental Protection Cream SPF 15; Avon Nutra Effects Active Seed Complex Ageless Day Cream Broad Spectrum SPF 20 Sunscreen; Avon Nutra Effects Active Seed Complex Balance Day Cream Broad Spectrum SPF 15 Sunscreen; Avon Nutra Effects Active Seed Complex Hydration Day Cream Broad Spectrum SPF 15 Sunscreen; Avon Nutra Effects Active Seed Complex Radiance Day Cream Broad Spectrum SPF 20 Sunscreen; Avon Skin So Soft Firm & Restore Neck & Chest Treatment Cream SPF 15 Sunscreen; Avon Solutions Beautifully Protected Daily Uv Moisturizer SPF 30; Avon Sun + Kids Technologie Derma Plus Technology Disappearing Potion Sunscreen Lotion; Avon Sun Age Defying SPF 30 Sunscreen Lotion; Avon Sun Baby SPF 40 Sunscreen Lotion; Avon Sun High Protection Kids Sunblock Lotion SPF 40; Avon Sun High Protection Sunblock Lotion SPF 40; Avon Sun Kids Disappearing Colour Stick SPF 25; Avon Sun Kids Disappearing Colour Sunblock Cream SPF 30; Avon Sun Kids SPF 30 Disappearing Color Sunscreen Spray; Avon Sun Kids SPF 40 Disappearing Color Sunscreen Lotion; Avon Sun SPF 15 Sunscreen Lotion; Avon Sun SPF 30 Sunscreen Lotion; Avon Sun SPF 40 Sunscreen Lotion; Avon Sun SPF 8 Sunscreen Lotion; Avon Sun Sparkle SPF 30 Sunscreen Lotion for Kids; Avon Sun Sport Refresh Sunscreen; Avon Sun Sport SPF 15 Sunscreen Spray; Avon Sun Sport SPF 30 Sunscreen Spray; Avon Sun Sunblock Lotion SPF 15; Avon Sun Sunblock Lotion SPF 30; Avon Sun Sunscreen; Avon Sun Sunscreen Face; Awaken by Quality Choice Anti-Wrinkle and Firming Moisturizer Day Broad Spectrum SPF18 Sunscreen; Awaken by Quality Choice Illuminating Daily Moisturizer Broad Spectrum SPF 15 Sunscreen; Awaken by Quality Choice Long-Lasting Oil-Free Moisturizer Broad Spectrum SPF 15; BANILA CO Prime Primer Sun; BENEFIT Triple Performing Facial Broad Spectrum SPF15; BLI Holding Miami Beach kids spf 50; BLI Holdings MIAMI BEACH Kids spf 50; BODY DEFENCE SUNSCREEN Broad Spectrum SPF30; BODY TIME Anti-Aging Day Cream SPF 30; BOTANIC HEAL boH Smart Tone Up Sun; Baby Broad Spectrum SPF 50 DG body; Baby Faces 45 SPF Sunscreen Spray; Baby Faces 50 SPF Sunblock; Baby Faces 50 SPF-fps Sunscreen Spray; Baby Faces 50 SPF/fps; Baby Sun Protection Lotion; Baby Sunscreen Broad Spectrum SPF 60 Lotion; Baby Sunscreen Stick écran Solaire En Bâtonnet SPF Fps 50; Baby Sunstick SPF 55 CVS; Baby Tear Free Sans Larmes Sunscreen Spray Ecran Solaire En Vaporisateur Pour Bebes SPF/fps 50; Baby Tear Free/sans Larmes Sunscreen Spray/écran Solaire En Vaporisateur Pour Bebes SPF Fps 60; Bain De Soleil Oil-free Protecteur SPF-25; Bain De Soleil Protection Lotion SPF 15; Balancing Day Moisture Broad Spectrum SPF 15 Jafra; Balancing Emulsion With Green Tea; Balancing SPF 15 Jafra; Bali Body BB Cream SPF 15; Bali Body Coconut Lip Balm SPF 15; Banana Boat; Banana Boat Aceite Bronceador Seco Tanning Dry SPF 6; Banana Boat Baby Sin Lagrimas SPF 50 Pump; Banana Boat Baby Sunscreen Lotion SPF/fps 60; Banana Boat Baby Sunscreen Spray SPF/fps 60; Banana Boat Baby Tear Free Lotion SPF 50; Banana Boat Baby Tear Free Sunscreen SPF 60; Banana Boat Deep Tanning Dry SPF 4; Banana Boat Deep Tanning Dry SPF 8; Banana Boat Everyday Glow; Banana Boat Kids Free 50; Banana Boat Kids Free Continuous Spray Sunscreen SPF 50+; Banana Boat Kids Protect and Play SPF 50; Banana Boat Kids Protect and Play SPF 85; Banana Boat Kids Quik Blok Spray SPF 25; Banana Boat Kids Sin Lagrimas Pump SPF 50; Banana Boat Kids Sunscreen Lotion SPF/fps 60; Banana Boat Kids Sunscreen Spray SPF/fps 60; Banana Boat Kids Tear Free Continuous SPF 50; Banana Boat Kids Tear Free Sunscreen SPF 60; Banana Boat Kids UltraMist Tear Free SPF 30; Banana Boat Mens SPF 30; Banana Boat Mens SPF 50 Plus; Banana Boat Protect and Hydrate SPF 30; Banana Boat Protect and Hydrate SPF 50 Plus; Banana Boat Protective Dry SPF 10; Banana Boat Protective Dry SPF 15; Banana Boat Protective Dry SPF 6; Banana Boat Quick Dry Spray SPF 15; Banana Boat Quick Dry Spray SPF 30; Banana Boat Quik Dri Sport Body and Scalp SPF 30; Banana Boat Sport Body and Scalp SPF 30; Banana Boat Sport Performance; Banana Boat Sport Performance Active Dry Protect SPF UVB 50; Banana Boat Sport Performance Active Dry protect; Banana Boat Sport Performance SPF 15; Banana Boat Sport Performance SPF 15 Canada; Banana Boat Sport Performance SPF 30; Banana Boat Sport Performance SPF 30 Canada; Banana Boat Sport Performance SPF 85; Banana Boat Sport Performance With Powerstay Technology Sunscreen Lotion SPF 30; Banana Boat Sport Performance With Powerstay Technology Sunscreen Lotion SPF/fps 60; Banana Boat Sport Performance With Powerstay Technology Sunscreen Spray SPF 30; Banana Boat Sport Performance With Powerstay Technology Sunscreen Spray SPF 50+; Banana Boat Sport SPF 30; Banana Boat Sport SPF 50; Banana Boat Sport SPF 60; Banana Boat SunComfort SPF 30; Banana Boat Suncomfort Sunscreen Lotion SPF 30; Banana Boat Suncomfort Sunscreen Lotion SPF 50+; Banana Boat Suncomfort Sunscreen Spray SPF 30; Banana Boat Suncomfort Sunscreen Spray SPF 50+; Banana Boat Sunscreen Lotion SPF/fps 60; Banana Boat Sunscreen Spray SPF 30; Banana Boat Sunscreen Spray SPF 50+; Banana Boat Suntanicals Sunscreen Lotion SPF 30; Banana Boat Ultra Defence SPF 30 for UK; Banana Boat Ultra Defense; Banana Boat Ultra Defense Broad Spectrum; Banana Boat Ultra Defense SPF 30 Canada; Banana Boat Ultra Defense SPF 30 for LATAM; Banana Boat Ultra Defense SPF 60 Canada; Banana Boat Ultra Defense SPF 85; Banana Boat Ultra Defense Sheer Protect; Banana Boat Ultra Defense Sheer Protect FPS 50 LATAM; Banana Boat Ultra Defense Sheer Protect SPF 30; Banana Boat Ultra Defense Sheer Protect SPF 50; Banana Boat Ultra Mist Kids FPS 60 LATAM; Banana Boat Ultra Plus Sunblock Ecran Solaire Uva & Uvb SPF/fps 50; Banana Boat Ultra defense SPF 50 Canada; Banana Boat UltraMist Baby Tear Free Continuous SPF 50; Banana Boat UltraMist Kids SPF 50 Factor de Proteccion Solar 50; Banana Boat UltraMist Kids Tear Free Lotion SPF 50; Banana Boat Ultramist Sport Performance SPF 50; Banana Boat Vitaskin Facial Care Sunscreen SPF 30 Lotion; Banana Boat Vitaskin Sunscreen SPF 30 Lotion; Banana Boat for Men Triple Defense Continuous Spray Sunscreen SPF 30; Banana Boat for Men Triple Defense Continuous Spray Sunscreen SPF 50+; Banana Boat for Men Triple Defense Sunscreen Lotion SPF 30; Banana Boat for Men Triple Defense Sunscreen Lotion SPF 50+; Banishing Cream Skin Tone Perfector Perfecteur De Teint SPF 15/fps15; Baume Levres Anti-dessechement Transparent SPF 30; Baume Prodigieux Levres 01 Natural Crystal Nutri-protecting Lip Care SPF 15; Baume Prodigieux Levres 02 Legendaire Pink Nutri-protecting Lip Care SPF 15; Baume Prodigieux Levres 03 Shimmering Chocolate Nutri-protecting Lip Care SPF 15; Baume Prodigieux Levres 04 Red Charismatic Nutri-protecting Lip Care SPF 15; Bb Cream Sunscreen SPF 30; Bb Dark; Bb Fair; Bb Light; Bb Medium; Be Fine Food Skin Care Daily Moisturizer With Rosemary,pomegranate and Rice With SPF 15; Beach Defense Kids; Beach Defense Kids SPF 60; Beach Defense SPF 30; Beach Defense SPF 30 Sunscreen Spray; Beach Defense SPF 60; Beach Defense SPF 60 Sunscreen Lotion; Beaute Initiale SPF 15; Beauticontrol Cell Block C; Beauty 360 Accelerated Wrinkle Repair Moisturizer; Beauty Before Age Ahava Uplift Day Broad Spectrum SPF 20; Beauty Booster Cream SPF 30; Beauty Booster Lip Gloss SPF 15; Beauty Dynamics SPF 15 Daily Eye Treatment; Beauty Without Cruelty - Broad Spectrum SPF 18; Beauté Initiale Eye; Beauté Initiale-CRème énergisante Multi-protection; Beauté Initiale-fluide énergisant Multi-protection; Beauté Initiale-fluide énergisant Multi-protection Hâle Progressif; Beeswax Lip Balm SPF 30 Vertra; Beeswax SPF 15 Lip; Being True Essentials Absolutely Radiant; Bellagio Sunscreen SPF 15; Benefiance Wrinkleresist24 Day Cream; Benefiance Wrinkleresist24 Day Emulsion; Benefit Triple Performing Facial Emulsion Broad Spectrum SPF 15; Benzac® SPF 30 Oil Control Day Moisturizer; Best Choice absolute Daily Moisturizing Broad Spectrum SPF 15 Sunscreen; Bienfait Multi-vital     (SPF 30); Bienfait Multi-vital SPF 30; Bienfait Uv SPF 50; Bilboa Capri Sunscreen SPF 15; Bilboa Capri Sunscreen SPF 30; Bilboa Capri Sunscreen SPF 50 Plus; Bio-alpine Jeunesse Refining Day Cream SPF 15; Bio-alpine Jeunesse Refining Day Fluid SPF 15; Bio-alpine Lift Anti-ageing Day Cream SPF 15; Bio-alpine Lift Anti-ageing Day Fluid SPF 15; Biokids SPF 35; Biosun Professional Sun Protection Oil Free Gel SPF 30; Biotherm - Lait Ecran Total SPF 25; Biotherm- Stick Ecran Total Levres SPF 20; Black Girl Sunscreen Sunscreen SPF 30 broad Spectrum; Black Rice Platinum Absolute Youth SPF 15; Bleve Bvibrant; Bliss Triple Oxygen Ultimate Protection UV Moisturizer SPF 33; Blistex Clear Advance Lip Protectant; Blistex Deep Renewal Broad Spectrum; Blistex Enhancement Series; Blistex Enhancement Series (Lip Vibrance, Deep Renewal and Ultra-Rich Hydration); Blistex Enhancement Series (Soft and Lush, Deep Renewal and Ultra-Rich Hydration); Blistex Five Star Lip Protection Broad Spectrum; Blistex Lip Massage; Blue Therapy Moisturizing Cream Dry Skin SPF 15; Blue Therapy Moisturizing Cream Normal/combination Skin SPF 15; Blue Therapy Multi-defender Dry Skin; Blue Therapy Multi-defender Normal/combination Skin; Blurred Lines CC Creme Broad Spectrum SPF 20 Shade 01 Light; Blurred Lines CC Creme Broad Spectrum SPF 20 Shade 02 Medium; Blurred Lines CC Creme Broad Spectrum SPF 20 Shade 03 Medium/Dark; Bo Spf15; Bobbi Brown All Over Bronzing Gel SPF 15; Bobbi Brown Beach Sunscreen Body Broad Spectrum SPF 15; Bobbi Brown Beach Sunscreen Gel for Body SPF 30; Bobbi Brown Beach Sunscreen for Face SPF 25; Bobbi Brown Brightening Protective Face Base Uv SPF 50; Bobbi Brown Extra Moisturizing Balm SPF 25; Bobbi Brown Extra Repair Foundation Broad Spectrum SPF 25; Bobbi Brown Extra Repair Moisturizing Balm SPF 25; Bobbi Brown Extra SPF 25 Moisturizing Balm; Bobbi Brown Extra SPF 25 Tinted Moisturizing Balm; Bobbi Brown Extra Tinted Moisturizing Balm SPF 25; Bobbi Brown Lip Balm Broad Spectrum SPF 15; Bobbi Brown Lip Balm SPF 15; Bobbi Brown Oil Control Lotion SPF 15; Bobbi Brown SPF 50 Protective Face Base Broad Spectrum; Body Glow Sunscreen SPF 20; Body Time Sun Broad Spectrum SPF30 Anti-Aging Day; Borghese Radiante Brightening Hand Creme; Boscia Daily Hydration SPF 15 Broad Spectrum For Normal To Oily Skin; Boscia Restorative Day Moisture Broad Spectrum SPF 15 For Dry Skin; Boscia Self-Defense Vital Antioxidant Moisture Broad Spectrum SPF 30; Botanical Effects Hydrate & Protect Broad Spectrum Sunscreen SPF 30; Botanics All Bright Hydrating Day Cream Sunscreen Broad Spectrum SPF 15; Botanics Complexion Refining Day Moisture Lotion Sunscreen SPF 12; Botanics Complexion Refining Day Moisture Sunscreen SPF 12; Botanics Daily Hand Therapy SPF 10; Botanics Daily Hand Therapy Sunscreen SPF 10; Botanics Day Moisture Sunscreen SPF 12; Botanics Face Defence Moisture Cream SPF 15; Botanics Face Firming Moisturizing Cream SPF 10; Botanics Face Lift Firming Cream Sunscreen SPF 10; Botanics Face Lift Firming Sunscreen SPF 10; Botanics Face Renewal Cream SPF 15; Botanics Face Renewal Cream Sunscreen SPF 15; Botanics Face Renewal Sunscreen SPF 15; Botanics Hydrating Day All Bright Sunscreen Broad Spectrum SPF 15; Botanics Mattifying Day All Bright Sunscreen Broad Spectrum SPF 15; Botanics Protecting Day Age Defense Sunscreen Broad Spectrum SPF 15; Botanics Radiant Youth Protecting Day Cream Sunscreen Broad Spectrum SPF 15; Botanics Shine Away Mattifying Day Cream Sunscreen Broad Spectrum SPF 15; Botanics Skin Calming Day Ultra Calm Sunscreen Broad Spectrum SPF 15; Botanics Triple Action Day Moisture Cream Sunscreen SPF 15; Botanics Triple Action Day Moisture Sunscreen SPF 15; Botanics Triple Age Renewal Day All Bright Sunscreen Broad Spectrum SPF 15; Botanics Triple Age Renewal Day Cream Sunscreen Broad Spectrum SPF 15; Bright Guard Water-Resistant SPF-30 Sunscreen; Brightening & Smoothing Daily Moisturizer; Brightening Hand Broad Spectrum SPF 20 Jafra; Brightening Hand Care Broad Spectrum SPF 20 Sunscreen; Brightening and moisturizing facial SPF 30; Brighter By Nature SPF 35 Skin Tone Correcting Moisturizer; Brighter By Nature SPF 35 Skin Tone Correcting Moisturizer Broad Spectrum; Broad Defense; Broad Spectrum 30 SPF Fps Sunscreen Lotion; Broad Spectrum 50 SPF Fps Sunscreen Lotion; Broad Spectrum SPF 15 CVS; Broad Spectrum SPF 15 Daily Eye Treat Jafra; Broad Spectrum SPF 15 Lotion; Broad Spectrum SPF 15 Preferred Plus Pharmacy; Broad Spectrum SPF 15 Sunscreen Continuous Spray; Broad Spectrum SPF 30 Fps; Broad Spectrum SPF 30 Preferred Plus Pharmacy; Broad Spectrum SPF 30 Sport Sunscreen Continuous Spray; Broad Spectrum SPF 30 Sunscreen Continuous Spray; Broad Spectrum SPF 30 Sunscreen Preferred Plus Pharmacy; Broad Spectrum SPF 30 Ultrathon; Broad Spectrum SPF 50 Baby Sunscreen Preferred Plus Pharmacy; Broad Spectrum SPF 50 CVS; Broad Spectrum SPF 50 Kids Preferred Plus Pharmacy; Broad Spectrum SPF 50 Lotion; Broad Spectrum SPF 50 Sunscreen Bioelements; Broad Spectrum SPF 50 Sunscreen Preferred Plus Pharmacy; Broad Spectrum SPF 50+ Sunscreen; Broad Spectrum SPF 70 CVS; Broad Spectrum SPF 70 Sunscreen Preferred Plus Pharmacy; Broad Spectrum SPF Fps 50; Broad Spectrum SPF/fps 30; Broad Spectrum SPF/fps 50; Bronz Repair Sea and Tropics Face; Brume Solaire; Brume Solaire SPF 5; Build-A-tan Face SPF 15; Bull Frog Insta-Cool Mist 50; Bull Frog Kids Continuous Spray Sunscreen Broad Spectrum SPF 50+; Bull Frog Kids Mist 50; Bull Frog Kids Sunscreen 35; Bull Frog Marathon Mist 36; Bull Frog Marathon Mist 50; Bull Frog Marathon Mist Continuous Spray Sunscreen Broad Spectrum SPF 36; Bull Frog Marathon Mist Continuous Spray Sunscreen Broad Spectrum SPF 50; Bull Frog Water Armor Sport 50; Bull Frog Water Armor Sport Quick Gel Sunscreen Broad Spectrum SPF 50; Bull Frog Water Armor Sport Quick Spray Sunscreen Broad Spectrum SPF 50; Bull Frog Water Armor Sport Quik 50; Bull Frog Water Armor Sport SPF 50+; BullFrog Land Sport SPF 50 Lip Balm; BullFrog Quik; BullFrog Quik Gel Sport; BullFrog SPF 50 Land Sport Quik Gel Sunscreen; BullFrog SPF50 Land Sport C-Spray; BullFrog SPF50 Land Sport Quik; BullFrog SPF50 Water Sport C-Spray; BullFrog Ultimate Sheer Protection Face; Burberry Cashmere Long-Lasting Flawless Soft-Matte Foundation Sunscreen Broad Spectrum SPF 15 Chestnut No.60; Burberry Cashmere Long-Lasting Flawless Soft-Matte Foundation Sunscreen Broad Spectrum SPF 15 Deep Brown No.66; Burberry Cashmere Long-Lasting Flawless Soft-Matte Foundation Sunscreen Broad Spectrum SPF 15 Mocha No.64; Burberry Cashmere Long-Lasting Flawless Soft-Matte Foundation Sunscreen Broad Spectrum SPF 20 Almond No.43; Burberry Cashmere Long-Lasting Flawless Soft-Matte Foundation Sunscreen Broad Spectrum SPF 20 Beige No.26; Burberry Cashmere Long-Lasting Flawless Soft-Matte Foundation Sunscreen Broad Spectrum SPF 20 Camel No.42; Burberry Cashmere Long-Lasting Flawless Soft-Matte Foundation Sunscreen Broad Spectrum SPF 20 Dark Sable No.36; Burberry Cashmere Long-Lasting Flawless Soft-Matte Foundation Sunscreen Broad Spectrum SPF 20 Honey No.32; Burberry Cashmere Long-Lasting Flawless Soft-Matte Foundation Sunscreen Broad Spectrum SPF 20 Ochre No.20; Burberry Cashmere Long-Lasting Flawless Soft-Matte Foundation Sunscreen Broad Spectrum SPF 20 Ochre Nude No.12; Burberry Cashmere Long-Lasting Flawless Soft-Matte Foundation Sunscreen Broad Spectrum SPF 20 Porcelain No.11; Burberry Cashmere Long-Lasting Flawless Soft-Matte Foundation Sunscreen Broad Spectrum SPF 20 Rosy Nude No.31; Burberry Cashmere Long-Lasting Flawless Soft-Matte Foundation Sunscreen Broad Spectrum SPF 20 Warm Honey No.38; Burberry Cashmere Long-Lasting Flawless Soft-Matte Foundation Sunscreen Broad Spectrum SPF 20 Warm Nude No.34; By Nature Daily Face Sunscreen Broad Spectrum SPF 30; By Nature Hydrating Day SPF 15; By Pharmicell Lab Prestige Sun Block SPF40 PA PLUS PLUS PLUS; C Cream SPF 30; CARMEX Lime twist BROAD SPECTRUM SPF 15 SUNSCREEN; CARMEX Pomegranate BROAD SPECTRUM SPF 15 SUNSCREEN; CARMEX Vanilla BROAD SPECTRUM SPF 15 SUNSCREEN; CARMEX cherry lip balm BROAD SPECTRUM SPF 15 SUNSCREEN; CARMEX moisture Plus Ultra Hydrating Lip Balm Broad Spectrum SPF 15 Sunscreen; CARMEX original lip balm BROAD SPECTRUM SPF 15 SUNSCREEN; CARMEX strawberry lip balm BROAD SPECTRUM SPF 15 SUNSCREEN; CC Cream Complexion Corrector Dark Broad Spectrum SPF 15 Jafra; CC Cream Complexion Corrector Light Medium Broad Spectrum SPF 15 Jafra; CC Cream Complexion Corrector Medium Broad Spectrum SPF 15 Jafra; CC Cream Complexion Corrector Medium Dark Broad Spectrum SPF 15 Jafra; CC Creme Concealer Broad Spectrum SPF 20 Jafra; CD Creme De Rose Plumping Lip Balm; CHANTECAILLE Ultra Sun Protection Sunscreen Broad Spectrum SPF 45; CHANTECAILLE Ultra Sun Protection Sunscreen Broad Spectrum SPF 50; CIZAR Aqua Sun; CLARINS - EXTRA-FIRMING JOUR SPF 15 - Wrinkle, Firming Day all skin types - Broad Spectrum SPF 15 Sunscreen; CLARINS BROAD SPECTRUM SPF 15 - Sunscreen Multi-Active Day Early wrinkle correcting; CLARINS BROAD SPECTRUM SPF 30 Sunscreen Care; CLARINS BROAD SPECTRUM SPF 50 Plus - SUNSCREEN CARE MILK; CLARINS BROAD SPECTRUM SPF 50 Plus - SUNSCREEN FOR FACE WRINKLE CONTROL; CLARINS Bright Plus HP SPF 20 Brightening Hydrating Day; CLARINS Broad Spectrum SPF 15 Sunscreen Care For Outdoor Sports; CLARINS Broad Spectrum SPF 15 Sunscreen Extra Firming Day Wrinkle Lifting; CLARINS Broad Spectrum SPF 30 Sunscreen For Face Wrinkle Control; CLARINS HYDRA-ESSENTIEL SPF 15 Broad Spectrum SPF 15 Sun Screen; CLARINS HydraQuench Normal to Combination Skin Broad Spectrum SPF 15 Sunscreen; CLARINS HydraQuench Normal to Dry Skin Broad Spectrum SPF 15 Sunscreen; CLARINS Super Restorative Day Illuminating lifting replenishing BROAD SPECTRUM - SPF 20 - Sunscreen; CLE DE PEAU BEAUTE SYNACTIF DAYTIME MOISTURIZER n; CRãme De Jour; CRème Auto-bronzante Bronze Dore SPF 15; CRème Montagne Et Grand Froid; CRème Protectrice SPF 20 Protective Cream SPF 20; CRème Rajeunissante Haute Fermeté Jour; CRème Solaire Anti-rides Visage SPF 15; CRème Solaire Anti-rides Visage SPF 30; CRème Solaire Bronzage Sécurité Spécial Visage SPF 15; CRème Solaire Protection Modérée Visage; CRème Solaire Protection élevée Visage; CRème Solaire Spécial Visage SPF 50; CRème Solaire Très Haute Protection SPF 30; CRème Solaire Visage Face Sunscreen; CVS Clear Face SPF 30 3 oz; CVS Health Age Defense SPF 70 Face; CVS Health Baby SPF 50; CVS Health Medicated Lip Care; CVS Health SPF 100 Clear; CVS Health SPF 100 Ultra Sheer; CVS Health SPF 15 Clear; CVS Health SPF 30 Clear; CVS Health SPF 30 Coconut Scented Clear; CVS Health SPF 30 Oil Free Sun; CVS Health SPF 30 Sheer Mist; CVS Health SPF 30 Ultra Sheer; CVS Health SPF 45 Sheer Mist; CVS Health SPF 45 Ultra Sheer; CVS Health SPF 50 Clear; CVS Health SPF 50 Coconut Scented Clear; CVS Health SPF 50 Sun; CVS Health SPF 55 Ultra Sheer; CVS Health SPF 70 Beach Guard Sun; CVS Health SPF 70 Clear; CVS Health SPF 70 Sheer Mist; CVS Health Sport SPF 100 Plus Clear; CVS Health Sport SPF 15 Clear; CVS Health Sport SPF 30; CVS Health Sport SPF 30 Clear; CVS Health Sport SPF 50 Clear; CVS Health Sport SPF 50 Face; CVS Health Sport SPF 50 Sun; CVS Health Sport SPF 70 Clear; CVS Health Ultra Protection SPF 30; CVS Health Ultra Protection SPF 50; CVS Pharmacy Beauty 360 SPF 15 7-in-1 Complete Daily Moisturizer; CVS Pharmacy Kids SPF 50 Clear; CVS Pharmacy Kids SPF 70 Clear; CVS Pharmacy Oil Free Faces SPF 30; CVS Pharmacy Oil Free SPF 30; CVS Pharmacy SPF 30; CVS Pharmacy SPF 30 Beach Guard Clear; CVS Pharmacy SPF 30 Beach Guard Sun; CVS Pharmacy SPF 50 Beach Guard Sun; CVS Pharmacy SPF 70 Beach Guard Clear; CVS Pharmacy Sport SPF 50; CVS Sheer SFP 30; CY BETTER LIPS BALM Humectante para Labios con color FPS 18 (BLUSH CURE) - PINK; CY BETTER LIPS BALM Humectante para Labios con color FPS 18 (CHOCO THERAPY) - BROWN; CY BETTER LIPS BALM Humectante para Labios con color FPS 18 (DR. ROSE) - PINK; CY BETTER LIPS BALM Humectante para Labios con color FPS 18 (FLASHY KARMIN) - RED; CY BETTER LIPS BALM Humectante para Labios con color FPS 18 (FUXIA DEFENSE) - MAGENTA; CY BETTER LIPS BALM Humectante para Labios con color FPS 18 (GET WELL PEACH) - PINK; CY BETTER LIPS BALM Humectante para Labios con color FPS 18 (GRAPE CARE) - RED; CY BETTER LIPS BALM Humectante para Labios con color FPS 18 (INTENSIVE RED) - RED; CY BETTER LIPS BALM Humectante para Labios con color FPS 18 (LILAC ZIMMER) - LILAC; CY BETTER LIPS BALM Humectante para Labios con color FPS 18 (PINK STAR) - PINK; CY BETTER LIPS BALM Humectante para Labios con color FPS 18 (PURE OXYGEN) - BEIGE; CY BETTER LIPS BALM Humectante para Labios con color FPS 18 (SAND LIFE) - YELLOW; CY BETTER LIPS BALM Humectante para Labios con color FPS 18 (SHINY BROWN) - BROWN; CY BETTER LIPS BALM Humectante para Labios con color FPS 18 (SUN LIGHT) - BEIGE; California Aloe Daily Moisture Sun Block; California Aloe Daily Sun Block; California Aloe Mild Sun Block; California Tan BROAD SPECTRUM SPF 15; California Tan BROAD SPECTRUM SPF 30; California Tan BROAD SPECTRUM SPF 4; California Tan BROAD SPECTRUM SPF 45; California Tan BROAD SPECTRUM SPF 8; California Tan Broad Spectrum SPF 15; California Tan Broad Spectrum SPF 8; California Tan Continuous Sunscreen Broad Spectrum SPF 30; California Tan SPF 15 Sunscreen; California Tan SPF 30 BROAD SPECTRUM Sunscreen; California Tan SPF 30 Sunscreen; California Tan SPF 45 Face Sunscreen; California Tan SPF 45 Sunscreen; Callyssee Beauty Faceguard Skin Protecting Facial Balm; Cannon Balm 140; Canscreen 400 Lotion; Capital Lumiere Jour SPF 15; Capture First Action Creme Lissante Jeunesse SPF 8; Capture First Action Fluide Lissant Jeunesse SPF 8; Capture Totale Anti-aging Emulsion Uva/uvb Protection; CareOne 7-in-1 Anti-Aging Vitamin; CareOne Daily Facial; CareOne Daily Moisturizer Broad Spectrum SPF15 Sunscreen; Careline Antigravity; Careline Revival Plus; Careline Skin Guard Invisible SPF 50; Careline Skin Guard Kids Invisible SPF 50; Careline Skin Guard SPF 30; Careone Anti Aging Vitamin Complex 7 in 1; Cargo Tinted Moisturizer SPF 20; Carrot Sun Spf30 Pa Plus Plus; Caudalie Resveratrol Face Lifting Moisturizer Broad Spectrum SPF 20; Cc Cream; Cc SPF 18 Fair; Cc SPF 18 Light To Medium; Cc SPF 18 Medium; Cc SPF 18 Medium To Dark; Celazome Mositurizing Sunscreen with SPF 29; Celazome SPF 29; Cellular Anti-Wrinkle SunScreen SPF 30 La Prarie; Cellular Anti-wrinkle Sun Cream SPF 30; Cellular Anti-wrinkle Sun Sunscreen Broad Spectrum SPF 30; Cellular Eye Moisturizer SPF 15 - The Smart Cream; Cellular Laboratories De-Aging Sunscreen Broad Spectrum SPF 50 Plus; Cellular Moisturizer SPF 15 - The Smart Cream; Cellular Protective Body Emulsion SPF 30; Cellular Purifying Systeme Hydrating Fluid SPF 15; Cellular Radiance Emulsion SPF 30 La Prairie; Cellular Time Release Moisture Lotion SPF 15; CeraVe Kids Sunscreen Broad Spectrum SPF 50 WET SKIN; CeraVe Sunscreen Broad Spectrum SPF 30 WET SKIN; CeraVe Sunscreen Broad Spectrum SPF 50 WET SKIN; Ceramide Lift And Firm Day Broad Spectrum Sunscreen SPF 30; Ceramide Lift and Firm Day Cream SPF 30; Ceramide Lift and Firm Day Lotion SPF 30; Ceramide Plump Perfect Lip Moisture SPF 30; Ceramide Premier Intense Moisture and Renewal Activation Broad Spectrum SPF 30; Ceramide Premiere Intense Moisture and Renewal Activation Cream SPF 30; Cetaphil; Cetaphil Daily Facial Moisturizer SPF 15; Cetaphil DermaControl SPF 30; Cetaphil Dermacontrol Oil Control Moisturizer; Chantecaille Ultra Sun Protection Sunscreen Broad Spectrum SPF 45 Primer; ChapStick Active Sport Ready; Chapstick Lipshield 365; Childrens Sunstick SPF 55 CVS; Cicatricure; Cicatricure Scar SPF 30; Citrus Mimosa Body SPF 30 Broad Spectrum Sunscreen Continuous; City Sunscreen serum Broad Spectrum SPF 30 Supergoop; Clarant B3; Clarifying Calming Oil-control Lotion SPF 15; Clarins Broad Spectrum SPF 15 - Sunscreen for Face Wrinkle Control; Clarins Broad Spectrum SPF 15 Sunscreen Care For Outdoor Sports; Clarins Broad Spectrum SPF 15 Sunscreen Delectable Self Tanning Mousse; Clarins Broad Spectrum SPF 20 - Sunscreen Care; Clarins Broad Spectrum SPF 20 - Sunscreen Care Milk; Clarins Broad Spectrum SPF 30 - Sunscreen Care; Clarins Broad Spectrum SPF 30 Sunscreen Care; Clarins Self Tanning Milk With Sun Protection Spf 6; Clarins Super Restorative Day Broad Spectrum SPF 20 Sunscreen; Clarins Vital Light Day SPF 15; Classic Body Plumeria SPF 30 Broad Spectrum; Classic Face Sport White Tea SPF 50 Broad Spectrum; Classic Moisturizing Body SPF 30 Broad Spectrum; Classic Sport Mango SPF 30 Broad Spectrum; Classic Sport Unscented SPF 30 Broad Spectrum; Classic Sport Unscented SPF 50 Broad Spectrum; Classic Unscented SPF 15 Broad Spectrum; Cle De Peau Beaute 30 Soin Protecteur Uv Pour Les Levres; Cle De Peau Beaute Gentle Protective I; Cle De Peau Beaute Hand; Cle De Peau Beaute Protective Fortifying; Cle De Peau Beaute Refreshing Protective I; Cle De Peau Beaute Sheer Fluid Veil; Cle De Peau Beaute Synactif Daytime Moisturizer; Cle De Peau Beaute Uv Protective Lip Treatment; Clean & Clear Finishes Pore Perfecting Moisturizer; Clean & Clear Morning Glow Moisturizer SPF 15; Clean Fresh Sunblock Sunscreen SPF 30 Continuous; Clean and Clear Finishes Pore Perfecting Moisturizer; Clean and Clear Morning Glow Moisturizer Sunscreen Broad Spectrum SPF 15; Clear Cover Invisible Sunscreen Broad Spectrum SPF 30; Clear Face; Clear Stick Uv Protector; Clear Ultra-light Daily Mattifying Fluid Broad Spectrum SPF 30; Clearasil Total Control All Day Mattifying Moisturizer; Clearskin Professional Oil Free; Clearskin Professional Oil Free Lotion SPF 15 Lotion Sans Huile Fps 15; Clindasol; Clinique Even Better Hand Cream SPF 15; Clinique Even Better Lotion SPF 20; Clinique Even Better Skin Tone Correcting Broad Spectrum SPF 20; Clinique Even Better Skin Tone Correcting Moisturizer SPF 20; Clinique Pep-start Hydrorush Moisturizer SPF 20; Clinique SPF 15 Face/body Cream; Clinique SPF 15 With Solar Smart Advanced Protection; Clinique SPF 25 Body Spray; Clinique SPF 30 Advanced Protection Body Cream With Solar Smart; Clinique SPF 30 Body Cream; Clinique SPF 30 Face Cream; Clinique SPF 30 Sheer Body Mist; Clinique SPF 30 With Solar Smart; Clinique SPF 45 Targeted Protection Stick; Clinique SPF 50 Body Cream; Clinique SPF 50 Face Cream; Clinique SPF 50 With Solar Smart Advanced Protection; Clinique Skin Supplies for Men; Clinique Skin Supplies for Men Age Defense Hydrator Broad Spectrum SPF 15; Clinique Skin Supplies for Men Age Defense Hydrator SPF 15; Clinique Skin Supplies for Men M Protect SPF 21; Clinique Smart Custom Repair Moisturizer Broad Spectrum SPF 15 - Combination/oily To Oily; Clinique Smart Custom Repair Moisturizer Broad Spectrum SPF 15 - Very Dry/dry; Clinique Smart SPF 15 Custom-repair Moisturizer Combination Oily To Oily; Clinique Smart SPF 15 Custom-repair Moisturizer Dry Combination; Clinique Smart SPF 15 Custom-repair Moisturizer Very Dry To Dry; Clinique Sun-care Body Gel 15 SPF Sunscreen; Clinique Sun-care Body Spray 15 SPF Sun Block; Clinique Sun-care Body Spray 30 SPF Sun Block; Clinique Sun-care Uv-response Body Cream 30 SPF Sunscreen; Clinique Sun-care Uv-response Body Cream 50 SPF Sunscreen; Clinique Sun-care Uv-response Face Cream 30 SPF Sunscreen; Clinique Sun-care Uv-response Face Cream 50 SPF Sunscreen; Clinique Superdefense Age Defense Moisturizer Broad Spectrum SPF 25; Clinique Superdefense Age Defense Moisturizer SPF 25 Combination Oily; Clinique Superdefense Age Defense Moisturizer SPF 25 Dry Combination; Clinique Superdefense Age Defense Moisturizer SPF 25 Very Dry Combination; Clinique Superdefense Daily Defense Moisturizer SPF 20 Combination Oily To Oily; Clinique Superdefense Daily Defense Moisturizer SPF 20 Very Dry To Dry Combination; Clinique Superdefense Triple Action Moisturizer SPF 25 Normal To Dry Skin; Clinique Superdefense Triple Action Moisturizer SPF 25 Normal To Oily Skin; Clinique Superdefense Triple Action Moisturizer SPF 25 for Very Dry Skin; Clinique Targeted Protection SPF 45 Broad Spectrum Sunscreen; Clinique Youth Surge SPF 15 Age Decelerating Moisturizer Very Dry/dry; Clinique for Men SPF 21 Moisturizer; Clé De Peau Beauté CRème Fortifiante Protectrice; Clé De Peau Beauté CRème Pour Les Mains; Clé De Peau Beauté émulsion Fortifiante Protectrice; Cold Sore Support; Color Extend Sun Take Cover SPF/fps 25; Complete + Care & Protect (80 Minutes) Water / Sweat Resistant Lotion SPF 30; Complete + Care & Protect (80 Minutes) Water / Sweat Resistant Lotion SPF 50+; Complete Acne Therapy System; Complete Advanced (80 Minutes) Water / Sweat Resistant Lotion SPF 15; Complete Advanced (80 Minutes) Water / Sweat Resistant Lotion SPF 30; Complete Advanced (80 Minutes) Water / Sweat Resistant Lotion SPF 45; Complete Advanced (80 Minutes) Water / Sweat Resistant Lotion SPF 50+; Complete Advanced [80 Minutes] Water/sweat Resistant Lotion SPF 60; Complete Lightweight Lotion SPF 15; Complete Lightweight Lotion SPF 45; Complete Sensitive Advanced (80 Minutes) Water / Sweat Resistant SPF 30; Complete Sensitive Advanced (80 Minutes) Water / Sweat Resistant SPF 50+; Complete+ Care & Protect [80 Minutes] Water/sweat Resistant Lotion SPF 60; Concept II SolScents Broad Spectrum SPF 15 Pina Colada; Concept II SolScents Broad Spectrum SPF 15 Vanilla Silk; Concept II SolScents Broad Spectrum SPF 30 Angelica; Concept II SolScents Broad Spectrum SPF 30 Cucumber Melon; Concept II SolScents Broad Spectrum SPF 30 Deep Love; Concept II SolScents Broad Spectrum SPF 50 Flower Blast; Concept II SolScents Broad Spectrum SPF 50 Raspberry Dreams; Conju Princess UV Sun Block; Continuous Hydration SPF 25; Continuous Spray SPF/fps 70; Continuous Spray Sheer Mist SPF 30; Continuous Spray Sunscreen Sun Bum Broad Spectrum SPF 15; Continuous Spray Sunscreen Sun Bum Broad Spectrum SPF 30; Continuous Spray Sunscreen Sun Bum Broad Spectrum SPF 50; Cool Sport SPF 50; Coola Citrus Mimosa Scent Sunscreen Spray; Coola Makeup Setting Spray Green Tea Scent; Coola Pina Colada Scent Sunscreen Spray; Cooldry Sport SPF 30; Cooldry Sport SPF 30 Sunscreen Spray; Cooldry Sport SPF 60; Cooldry Sport SPF 60 Sunscreen Spray; Coolzone Instantly Cools & Refreshes Rafraîchit Instantanément Spray Sunscreen écran Solaire En Vaporisateur SPF/fps 30; Coolzone Instantly Cools & Refreshes Rafraîchit Instantanément Spray Sunscreen écran Solaire En Vaporisateur SPF/fps 50; Coolzone Instantly Cools & Refreshes Rafraîchit Instantanément Sunscreen Lotion Lotion écran Solaire SPF/fps 30; Coolzone Instantly Cools & Refreshes Rafraîchit Instantanément Sunscreen Lotion Lotion écran Solaire SPF/fps 50; Copperstone Water Babies Pure and Simple Whipped Sunscreen Broad Spectrum SPF 50 SPF 50; Coppertone Clear Continuous Spray Sunscreen SPF 50; Coppertone Clearly Sheer Faces SPF 50; Coppertone Clearly Sheer For Beach and Pool SPF 30; Coppertone Clearly Sheer For Beach and Pool SPF 50 Plus; Coppertone Clearly Sheer For Beach and Pool SPF 50 Plus Face; Coppertone Clearly Sheer For Sunny Days SPF 15; Coppertone Clearly Sheer For Sunny Days SPF 30; Coppertone Clearly Sheer For Sunny Days SPF 30 Face; Coppertone Clearly Sheer SPF 30; Coppertone Clearly Sheer SPF 50; Coppertone Clearly Sheer Whipped SPF 30; Coppertone Clearly Sheer Whipped SPF 50; Coppertone Clearly Sheer Whipped Sunscreen Broad Spectrum SPF 30 SPF 50; Coppertone Clearly Sheer Whipped Sunscreen Broad Spectrum SPF 50 SPF 50; Coppertone Clearly Sher Faces SPF 30; Coppertone Defend and Care Face Oil Free SPF 30; Coppertone Defend and Care Face Oil Free SPF 50; Coppertone Defend and Care Face Sunscreen SPF 50; Coppertone Defend and Care Ultra Hydrate SPF 50; Coppertone Defend and Care Ultra Hydrate Whipped SPF 30; Coppertone Defend and Care Ultra Hydrate Whipped SPF 50; Coppertone Defend and Care Ultra Hydrating SPF 50; Coppertone Gel SPF 15; Coppertone Gel SPF 30; Coppertone General Protection Sunscreen Lotion SPF 60; Coppertone KIDS SPF 30; Coppertone KIDS SPF 50; Coppertone KIDS SPF 55; Coppertone Kids Continuous Spray SPF 60; Coppertone Kids Continuous Spray Sunscreen SPF 50; Coppertone Kids Lotion SPF 30; Coppertone Kids SPF 50; Coppertone Kids SPF 70 Plus; Coppertone Kids Sunscreen Lotion SPF 60; Coppertone Kids Sunscreen Mousse SPF 60; Coppertone Kids Sunscreen SPF 50; Coppertone Kids Sunscreen SPF 70; Coppertone Kids Sunscreen Stick SPF 55; Coppertone Kids Wet Protect SPF 50; Coppertone Kids Wet'n Clear Sunscreen Continuous Spray SPF 50; Coppertone Lotion Spray SPF 30; Coppertone Oil Free Continuous Spray SPF 50 Sunscreen; Coppertone Oil Free Faces SPF 50 Plus; Coppertone Oil Free Faces SPF-30; Coppertone Oil Free Faces Sunscreen Lotion SPF 60; Coppertone Oil Free Lotion SPF 30; Coppertone Oil Free Lotion SPF 45; Coppertone Oil Free Sunscreen Lotion SPF 30; Coppertone Oil Free Sunscreen Mousse SPF 60; Coppertone SPF 15; Coppertone SPORT PRO SERIES SPF 15; Coppertone SPORT PRO SERIES SPF 30; Coppertone SPORT PRO SERIES SPF 50; Coppertone SPORT SPF 30; Coppertone Spectra SPF 30; Coppertone Sport; Coppertone Sport AccuSpray SPF 15; Coppertone Sport AccuSpray SPF 30; Coppertone Sport AccuSpray SPF 70; Coppertone Sport Clear Continuous Spray Sunscreen SPF 50; Coppertone Sport Continuous SPF 100 Plus; Coppertone Sport Continuous Spray SPF 15 Accuspray Sunscreen; Coppertone Sport Continuous Spray SPF 30 Accuspray Sunscreen; Coppertone Sport Continuous Spray SPF 50+ Accuspray Sunscreen; Coppertone Sport Gel SPF-15; Coppertone Sport Gel SPF-30; Coppertone Sport High Performance Faces SPF 50; Coppertone Sport High Performance SPF 30; Coppertone Sport High Performance SPF 50; Coppertone Sport Lip Balm SPF 50; Coppertone Sport Pro Series Sunscreen Continuous Spray SPF 30; Coppertone Sport Pro Series Sunscreen Continuous Spray SPF 50+; Coppertone Sport SPF; Coppertone Sport SPF 100; Coppertone Sport SPF 15; Coppertone Sport SPF 30; Coppertone Sport SPF 50; Coppertone Sport SPF 55; Coppertone Sport SPF 70; Coppertone Sport SPF 75; Coppertone Sport SPF 80; Coppertone Sport Sunscreen Lip Balm SPF 30; Coppertone Sport Sunscreen Lotion Face SPF 50; Coppertone Sport Sunscreen Lotion Face SPF 60; Coppertone Sport Sunscreen Lotion SPF 15; Coppertone Sport Sunscreen Lotion SPF 30; Coppertone Sport Sunscreen Lotion SPF 50; Coppertone Sport Sunscreen Lotion SPF 60; Coppertone Sport Sunscreen Stick SPF 55; Coppertone Sport Wet Protect SPF 30; Coppertone Sunscreen Continuous Spray SPF 30; Coppertone Sunscreen Continuous Spray SPF 50+; Coppertone Sunscreen Lotion Clearlysheer Face SPF 30; Coppertone Sunscreen Lotion Clearlysheer Face SPF 50; Coppertone Sunscreen Lotion Clearlysheer SPF 30; Coppertone Sunscreen Lotion Face Oil Free SPF 30; Coppertone Sunscreen Lotion Oil Free SPF 50; Coppertone Sunscreen Lotion Oil Free SPF 60; Coppertone Sunscreen Lotion SPF 15 Sun Guard; Coppertone Sunscreen Lotion SPF 30; Coppertone Sunscreen Lotion SPF 30 Sport; Coppertone Sunscreen Lotion SPF 30 Sun Guard; Coppertone Sunscreen Lotion SPF 50 Defend & Care; Coppertone Sunscreen Lotion SPF 50+ Sport; Coppertone Sunscreen Mousse SPF 50 Defend & Care; Coppertone Sunscreen Spray Clearlysheer SPF 30; Coppertone Sunscreen Spray Clearlysheer SPF 50; Coppertone Sunscreen Spray SPF 15 Sport; Coppertone Sunscreen Spray SPF 30 Sport; Coppertone Sunscreen Spray SPF 50 Sport; Coppertone Sunscreen Stick SPF 55; Coppertone Tanning Defend and Glow SPF 15; Coppertone Tanning Dry Oil SPF 15; Coppertone Tanning Oil SPF 15; Coppertone Tanning Sunscreen SPF 15; Coppertone Tattoo Guard Sunscreen SPF 50; Coppertone TattooGuard Sunscreen SPF 50 Plus; Coppertone Ultra Guard SPF 30; Coppertone Ultra Guard SPF 50; Coppertone Ultra Guard SPF 70; Coppertone UltraGuard SPF 15; Coppertone UltraGuard SPF 30; Coppertone UltraGuard SPF 50; Coppertone UltraGuard SPF 70 Plus; Coppertone UltraGuard SPF 70 Plus Sunscreen; Coppertone Uv Guard SPF-30 Lotion; Coppertone Uvguard SPF 15 Lotion; Coppertone Water BABIES SPF 55; Coppertone Water Babies Foaming Sunscreen SPF 75 Plus; Coppertone Water Babies Pure And Simple Whipped SPF 50; Coppertone Water Babies SPF 50; Coppertone Water Babies Sunscreen SPF 70 Plus; Coppertone Waterbabies Continuous Spray Sunscreen Lotion SPF 50; Coppertone Waterbabies Pure and Simple Light SPF 50; Coppertone Waterbabies Sunscreen Lotion SPF 60; Coppertone Waterbabies Sunscreen Mousse SPF 60; Coppertone Wet and Clear Kids SPF 50 Plus; Coppertone Wet and Clear SPF 50 Plus; Coppertone Wet n Clear Kids SPF 45plus; Coppertone Wet n Clear SPF 30; Coppertone Wet n Clear SPF 45plus; Coppertone Wet'n Clear Sunscreen Continuous Spray SPF 30; Coppertone Wet'n Clear Sunscreen Continuous Spray SPF 50; Coppertone kids SPF 50; Coppertone kids SPF 70 Plus; Coppertone kids SPF 75 Plus; Coppertone oil free Foaming Sunscreen SPF 75 Plus; Coppertone oil free SPF 30; Coppertone oil free faces SPF 15; Coppertone oil free faces Sunscreen SPF 30; Coppertone ultraGUARD SPF 15; Coppertone ultraGUARD SPF 30; Coppertone ultraGUARD SPF 50; Coppertone ultraGUARD Sunscreen SPF 100 Plus; Coppertone water BABIES SPF 70 plus; Coppertone waterBABIES Pure and Simple Free SPF 50; Coppertone waterBABIES Sunscreen SPF 50; Coppertone wet n clear SPF 30; Coral Bay Juicy Lip Fix SPF45; CoreTex Sun X SPF 30; Correction Code (A.M.) Daily Moisturizer Broad Spectrum SPF 25; Correway Sunscreen (Non-waterproof); Correway Sunscreen (Waterproof); Cosmedix SPF50; Cover FX Clear Cover Invisible Sunscreen Broad Spectrum SPF 30; Cover Fx Protection Primer SPF 30; Cover Fx Total Cover Foundation SPF 30; Cover Tint SPF 20 - Dark; Cover Tint SPF 20 - Light; Cover Tint SPF 20 - Medium; Creme Auto-bronzante Bronze Dore SPF 15; Creme De Corps Light-weight Body Lotion; Creme Ecran Solaire; Creme Ecran Total Intolerances Solaires SPF 40; Creme Ecran Total Intolerances Solaires SPF 45; Creme Ecran Total SPF 25; Creme Fondante SPF 15; Creme Protectrice Anti-rides / Age Defying Protecting Cream SPF 10; Creme Protectrice Spf15; Creme Solaire Bronzage Rapide Special Peaux Mates SPF 10; Creme Solaire Bronzage Securite Special Visage SPF 15; Creme Solaire Ecran Special Visage SPF 30; Creme Solaire Fondante Protection Minimale 10 SPF; Creme Solaire Haute Protection SPF 15; Creme Visage Fps 30; Creme Visage Fps 45; Crescent White Uv Protector Broad Spectrum SPF 50; Croc Bloc Broad Spectrum SPF 30 FPS Ecran Solaire; Croc Bloc Broad Spectrum SPF 50 FPS Ecran Solaire; Cross-terrain SPF 50; Cvs Oil Free SPF 15; Cvs Pharmacy Calming Daily Moisturizer; Cvs Pharmacy Illuminating; Cvs SPF 30 Sport; Cvs Sport; Cvs Sport SPF 30; Cyantific Protecting Daily Broad Spectrum SPF 30; Cyber White Brilliant Cells Full Spectrum Brightening Uv Protector SPF 50; Cyberwhite Hd Bb Advanced Brightening Broad Spectrum SPF 50; Cyberwhite Hd Uv Protector Broad Spectrum SPF 50; DAILY DEFENCE SUNSCREEN Broad Spectrum SPF30; DDF Advanced Moisture Defense Broad Spectrum SPF 15; DDF Daily Protective Moisturizer Broad Spectrum SPF 15; DDF Mattifying Moisturizer Broad Spectrum SPF 15; DDF Protect and Correct UV Moisturizer Broad Spectrum SPF 15; DDF Protective Eye Broad Spectrum SPF 15; DDF Ultra-Lite Moisturizing Dew Broad Spectrum SPF 15; DDF Weightless Defense Hydrator Broad Spectrum SPF 45; DIY Booster SPF 30 Facial Serum Unscented; DONGINBI Red Ginseng Moisturizing Sun; DR. BABOR DERMA CELLULAR Detoxifying Vitamin SPF 15; DR. BABOR DERMA Cellular Detoxifying Vitamin SPF 15 CP; DT Collagen; Daily Anti-Aging Moisturizer Broad Spectrum SPF30 Sunscreen UVA-UVB Sunscreen with SolSci-X; Daily Anti-wrinkle Moisturizer; Daily Anti-wrinkle Moisturizing Lotion; Daily Defense Broad Spectrum SPF 30; Daily Defense SPF 15; Daily Deflector Moisturizer SPF 20; Daily Deflector Moisturizer SPF 50; Daily Essential Moisturiser; Daily Face Protectant SPF 30; Daily Facial Moisturizer; Daily Facial Moisturizer Broad Spectrum SPF15 Sunscreen; Daily Facial Moisturizer SPF 35; Daily Fade Maximum Strength SPF15; Daily Fade SPF15; Daily Moisturizer Broad Spectrum SPF 30; Daily Moisturizer Broad-Spectrum SPF 30; Daily Moisturizer Oil Free; Daily Moisturizing Antioxidant SPF 50; Daily Moisturizing Broad Spectrum SPF15 Sunscreen; Daily Protection Moisturizing Body Lotion (SPF 15); Daily Radiance Moisturizing Lotion With SPF 15; Daily Wear Moisturizer SPF-20; Daily Wear SPF 20; Dark Spot Corrector; Dark Tanning 4 SPF Dry Oil Spray; Dawn Patrol Classic Makeup Primer SPF 30 Broad Spectrum; Day C; Day Care for Hands Broad Spectrum SPF 15 Jafra; Day Cream - 10 SPF; Day Cream Broad Spectrum SPF 15; Day Cream Mattifying Hydrator SPF 25; Day Cream Replenishing Hydrator SPF 25; Day Cream SPF 15; Day Creme Broad Spectrum SPF 15; Day L; Day Lotion - 10 SPF; Day Lotion SPF 15; Day Moisturizer SPF 15; Day Wear Advanced Multi-protection Anti-oxidant and Uv Defense Broad Spectrum SPF 30; Daywear Advanced Multi-protection Anti-oxidant Oil-free Broad Spectrum SPF 25; Daywear Advanced Multi-protection Antioxidant Creme SPF 15 for Dry Skin; Daywear Advanced Multi-protection Antioxidant SPF 15 Oily Skin; Daywear Advanced Multiprotection Antioxidant Creme SPF 15 for Normal Combination Skin; Daywear Plus Multi Protection Tinted Moisturizer SPF 15; Daywear Sheer Tint Release Advanced Multi-protection Anti-oxidant Moisturizer SPF 15; Ddf Advanced Moisture Defense Uv Cream SPF 15; Ddf Daily Protective Moisturizer Uv Moisturizer SPF 15; Ddf Mattifying Oil-control Uv Moisturizer SPF 15; Ddf Protect and Correct Uv Moisturizer SPF 15; Ddf Protective Eye Cream Uv Moisturizer SPF 15; Ddf Ultra Lite Oil Free Moisturizing Dew Uv Moisturizer; Ddf Ultra-lite Oil-free Moisturizing Dew Uv Moisturizer SPF 45; Deep Moisture; Deep Renewal; Deep Wrinkle Moisture; Defend Hydrating Broad Spectrum SPF 15; Defend and Restore Moisture CRème; Defend and Restore Moisture Lotion; Defense Refresh Settingh Mist Broad Spectrum Sunscreen SPF 50 Supergoop; Defense Zone Broad Spectrum SPF 30 Sunscreen; Defense Zone C/S Broad Spectrum SPF 30; Defense Zone Kids C/S Broad Spectrum SPF 50; Defense Zone Sport Broad Spectrum SPF 30 Sunscreen; Defense Zone Sport Broad Spectrum SPF 50 Sunscreen; Defense Zone Sport C/S Broad Spectrum SPF 30; Defense Zone Sport C/S Broad Spectrum SPF 50; Delon Tropic High Protection Sun Spray SPF 30; Derma Brilliance Sunscreen SPF 30; Dermablend Professional SkinPerfector Redness Reducing Primer Sunscreen; DermacinRx Skin Moisturizing Ultra SPF 50 Sunscreen; Dermalogica Full Spectrum Block SPF 15; Dermalogica Solar Defense Booster SPF 30; Dermaprot Helioprot Ab SPF 30; Dermatological Sun Protection; Dermisa SUNSCREEN SPF 55 BROAD SPECTRUM; Dermoessential Sun Rescue; Desert Bambu Sunscreen SPF 15; Desert Bambu Tanning SPF 15; Desert Bambu Tanning SPF 6; Desert Fusion Nutritious Olive Leaf Daily Defense Broad Spectrum SPF 15 Sunscreen; Destination Brands International BROAD SPECTRUM SPF 50 Sunscreen; Differin Oil Control Moisturizer SPF 30; Do The Right Thing Smoothing Body Lotion SPF 15; Doctor Ts Super goop; Dormer 211 Face Cream SPF 15; Dormer 211 SPF 30; Double-duty Face Moisturizer SPF 20; Dove DermaSeries Dry Skin Relief Replenishing Face Cream SPF 15; Dove Face Day Cream; Dove Face Day Lotion; Dove Men plus Care Hydrate Face; Dove Men plus Care Hydrate Face SPF 15; Dove Men plus Care Sensitive Face; Dove Men+care Face Lotion; Dove Men+care Face Lotion Hydrate+; Dr. Andrew Weil for Origins MEGA-BRIGHT SPF 30 SKIN TONE CORRECTING OIL FREE MOISTURIZER BROAD SPECTRUM SPF 30; Dr. Andrew Weil for Origins Mega-bright SPF 30 Skin Tone Correcting Oil-free Moisturizer; Dr. Evans Oil-Free DEFENSE DAY TINTED MOISTURIZER SPF 55; Dr.Jart Every Sun Day Sun Fluid SPF 30; Dry Balance Sunscreen Lotion SPF 30; Dry Balance Sunscreen Lotion SPF 50+; Dry Balance Sunscreen Spray SPF 30; Dry Balance Sunscreen Spray SPF 50+; Dry Oil Antioxidant Sun Protection; Dry Oil Huile Sèche SPF/fps 4; Drymarine Age Control; Dynamic Defence Concentrate Anti-Ageing Day SPF 15; Dynamic Skin Recovery SPF 30; Dynamic Skin Recovery SPF 50; Dynamic Skin Recovery SPF30; Dynamic Skin SPF 30; EAD Kids; ECO EARTH POWER Light Sun; ELF Daily Hydration Moisturizer SPF 15; EXTRASHADE Daily Defense Hydrating Sunscreen SPF 30; Ead; Easydew Daily Baby Care Sun; Easydew Daily Fresh Mild Sun; Easydew Daily Ultra Shield Sun; Eau Thermale Avene Hydrating Sunscreen SPF 50; Eau Thermale Avene Ultra-Light Hydrating Sunscreen SPF 50; Ecran Solaire Fps 30 Lot; Ecran Solaire SPF 15 - Crm; Ecran Soleil SPF 30; Ecran Total Anti-intolerance SPF 30-crm; Ecran Total Solaire Fps 25; Effaclar Duo (+) SPF 30; Eight Hour Cream Intensive Daily Moisturizer For Face SPF 15; Eight Hour Cream Nourishing Lip Balm SPF 20; Eight Hour Cream Targeted Sun Defense SPF 50; Elements Anti Aging Vitamin Complex 7 In 1; Elixir FINE Sunscreen Broad Spectrum SPF 15; Elizabeth Arden Ceramide Plump Perfect Lip Moisture Cream-spf30; Elizabeth Arden Ceramide Plump Perfect Moisture Cream - SPF 15; Elizabeth Arden Extreme Conditioning Cream; Elizabeth Arden First Defense Protective Cream; Elizabeth Arden First Defense Protective Lotion; Elizabeth Arden Intervene Radiance Boosting Moisture Lotion SPF 15; Elizabeth Arden Moisture Shield SPF 15; Elizabeth Arden Nourishing Lip Balm SPF 20; Emulsion SPF 50+; Ener-C Moisturizing Lotion SPF 30; Energizing Pomegranate Moisturizer SPF 15; Enfuselle Lip Treatment SPF 15 Broad Spectrum; Enfuselle Time Repair A.M. SPF15; Enriching Moisturizer 1; Eos Active Protection Fresh Grapefruit Sunscreen Lip Balm Broad Spectrum SPF 30; Eos Active Protection Lemon Twist Sunscreen Lip Balm Broad Spectrum SPF 15; Eos Lip Balm Sunscreen Broad Spectrum SPF 15; Equaline All Day Moisturizer; Equate Age Guard Face Broad Spectrum SPF 110 Sunscreen; Equate Anti-Wrinkle; Equate Baby Sunscreen; Equate Baby Sunscreen Lotion SPF/fps 60; Equate Daily Facial Moisturizer Broad Spectrum Sunscreen; Equate Kids Sunscreen Lotion SPF/fps 60; Equate Sport Sunscreen Broad Spectrum; Equate Sport Sunscreen Continous Spray SPF/fps 15; Equate Sport Sunscreen Continuous Spray SPF/fps 60; Equate Sport Sunscreen Continuous Spray SPF/fps30; Equate Sport Sunscreen Lotion SPF/fps 30; Equate Sport Sunscreen Lotion SPF/fps 60; Equate Sunscreen Continuous Spray SPF/fps 15; Equate Sunscreen Lotion SPF/fps 30; Equate beauty road Spectrum SPF30; Equilibre-hydra-city Fps 15-SPF 15; Erno Laszlo Hydraphel Emulsion SPF 15; Erno Laszlo R.E.M. SPF 30; Erno Laszlo Solar Exchange Sun Balm SPF 25; Erysol; Eshu Skin Assist SPF 30 Moisturising Sunscreen; Esika Perfect Sun; Esika Perfectblock Multiprotector Solar De Amplio Espectro Para Rostro Y Cuerpo Fps 50plus; Essential Shockeye and Lip; Essential-C Day Moisture Broad Spectrum SPF 30 Pa+++; Essentials 24h Moisture Boost + Matte; Essentials 24h Moisture Boost + Nourish; Essentials 24h Moisture Boost + Refresh; Essentials 24h Moisture Boost + Soothe; Estee Lauder Advanced Time Zone Age Reversing Line/wrinkle Creme Oil-free SPF 15 for Normal/combination Skin; Estee Lauder Advanced Time Zone Age Reversing Line/wrinkle Creme SPF 15 for Dry Skin; Estee Lauder Advanced Time Zone Age Reversing Line/wrinkle Creme SPF 15 for Normal/combination Skin; Estee Lauder Daywear Advanced Multi-protection Lotion SPF 15 for Oily Skin; Estee Lauder Daywear Advanced Multi-protection Uv Defense SPF 50; Estee Lauder Daywear Multi-protection 24h-moisture Creme Oil-free SPF 25; Estee Lauder Daywear Multi-protection 24h-moisture Creme SPF 15 for Dry Skin; Estee Lauder Daywear Multi-protection 24h-moisture Creme SPF 15 for Normal/ Combination Skin; Estee Lauder Daywear Multi-protection Sheer Tint Release Moisturizer SPF 15 All Skintypes; Estee Lauder Daywear Plus Multi Protection Tinted Moisturizer SPF 15; Estee Lauder Daywear Plus Multiprotection Creme SPF 15 for Dry Skin; Estee Lauder Daywear Plus Multiprotection Creme SPF 15 for Normal/combination Skin; Estee Lauder Daywear Plus Multiprotection Lotion SPF 15 for Oily Skin; Estee Lauder Daywear Sheer Tint Release Advanced Multi-protection Moisturizer SPF 15; Estee Lauder Genuine Glow Priming Moisture Balm SPF 15; Estee Lauder Hydra Bright Skin-tone Perfecting Moisturizer SPF 15; Estee Lauder Hydrationist Maximum Moisture Creme SPF 15; Estee Lauder Lightsource Time-resisting Moisture Creme SPF 15; Estee Lauder Lightsource Time-resisting Moisture Lotion SPF 15; Estee Lauder Resilience Lift Firming/sculpting Face and Neck Creme Oil-free SPF 15 for Normal/combination Skin; Estee Lauder Resilience Lift Firming/sculpting Face and Neck Creme SPF 15 for Dry Skin; Estee Lauder Resilience Lift Firming/sculpting Face and Neck Creme SPF 15 for Normal/combination Skin; Estee Lauder Sun Performance SPF 30 Sunscreen Sun Care Multi-protection Sun Lotion for Body; Estee Lauder Sun Performance SPF 30 Sunscreen Sun Care Multi-protection Sun Lotion for Face; Estee Lauder Time Zone Line and Wrinkle Reducing Creme SPF 15 for Dry Skin; Estee Lauder Time Zone Line and Wrinkle Reducing Creme SPF 15 for Normal/combination Skin; Estee Lauder Time Zone Line and Wrinkle Reducing Lotion SPF 15; Eucerin Daily Hydration; Eucerin Daily Hydration Hand; Eucerin Daily Protection Body; Eucerin Redness Relief Daily Perfecting; Eve Lom Daily Protection Broad Spectrum SPF 50 Sunscreen; Eve Lom Flawless Radiance Primer Broad Spectrum SPF 30 Sunscreen; Even Better Dark Spot Correcting Broad Spectrum SPF 15; Even Better Skin Tone Correcting Moisturizer Broad Spectrum SPF 20; Even Better Skin Tone Correcting Mosturizer SPF 20; Even Tone Daily Moisturizer; Evervescence Daily Facial Moisturizer Broad Spectrum SPF15 Sunscreen; Everyday Face and body Broad Spectrum SPF 30 Supergoop; Everyday Sunscreen Broad Spectrum SPF 30 Supergoop; Everyday Sunscreen Broad Spectrum SPF 50 Supergoop; Everyday Sunscreen SPF 50 Supergoop; Everyday Uv Protector Sun Screen; Evian Original Hydrating Lotion SPF 15; Exact Cooling and Refreshing Clear Continuous Spray Sunscreen SPF/fps 45; Exact Kids Clear Continuous Spray Sunscreen SPF/fps 50; Exact Kids' Sunscreen Lotion SPF Fps 30; Exact SPF Fps 30 Sport Sunscreen Lotion; Exact SPF Fps 50+ Kids Sunscreen Lotion; Exact Sunscreen Lotion SPF Fps 30; Excel SPF 30; Excel Sport SPF 50; Exchange Select Baby Sunscreen SPF 50; Exchange Select Kids Sunscreen SPF 50; Exchange Select Sheer Dry Touch Sunscreen SPF 70; Exchange Select Sport SPF 50; Exchange Select Sport Sunscreen SPF 30; Exchange Select Sport Sunscreen SPF 50; Exchange Select Sunscreen SPF 30; Exchange Select Sunscreen SPF 45; Exchange Select Sunscreen SPF 50; Exchange Select Sunscreen SPF 70; Exsel Sport SPF 15; Exsel Sport SPF 30; Exten-10 Instant Youth Boosting Moisturizer SPF 15; Extra Repair Foundation Broad Spectrum SPF 25; Extra Repair Moisturing Balm SPF 25; Extreme (UVA/UVB) SPF 33; Extreme Anti-Wrinkle Care SPF 30; Extreme Sport SPF 70; Exuviance Age Reverse Day Repair SPF 30; Exuviance Optilight All-Over Dark Spot Minimizer SPF 25; Exuviance Sheer Refining Fluid SPF 35; FC5 Complexion Perfecting Set; FC5 Face Normal to Dry Sample Set; FC5 Face Oily Combination Sample Set; FC5 Nurturing Day Broad Spectrum SPF 20 Sunscreen; FC5 Oil-Absorbing Day Broad Spectrum SPF 20 Sunscreen; Fabulous Face SPF 15; Face & Body Protector SPF 15; Face & Body Sunscreen Broad Spectrum SPF 30; Face Factor; Face Factor SPF 50; Face It Radiance Makeup Base SPF 20 Pa++; Face Lift Broad Spectrum SPF 20 Jafra Pro; Face Moisturiser; Face Multi-protection Sun Cream SPF 15; Face Multi-protection Sun Cream SPF 30; Face Multi-protection Sun Cream SPF 50; Face Oasis Hydrating Face Oasis Hydrating SPF 30; Face Oasis Hydrating Lotion SPF 30; Face Oasis Plus Hydrating Fluid SPF 15; Face Potion; Face and Body Lotion SPF 50; Face and Body Protective Lotion SPF 30; Face and Body Sunscreen SPF 35 Jafra; Facescreen SPF 50; Facial Boosting Broad Spectrum SPF 15 Jafra; Facial Fuel SPF 15; Facial Fuel Uv Guard; Facial Sun Cream SPF 15; Facial Sunscreen SPF 20 Lotion; Fair and Square Kids Broad Spectrum SPF 50; Fair and Square Sport Broad Spectrum SPF 30; Fair and Square Sport Broad Spectrum SPF 50; Fair and Square Sport Sunscreen SPF 30; Fair and Square Sport Sunscreen SPF 50; Fair and Square Ultra Protection Broad Spectrum SPF 15; Fair and Square Ultra Protection Broad Spectrum SPF 30; Fair and Square Ultra Protection Sunscreen SPF 15; Fair and Square Ultra Protection Sunscreen SPF 30; Fast-drying Sunscreen SPF 30; Fc5 Nurturing Day Lotion With SPF 20; Fc5 Oil-absorbing Day Lotion With SPF 20; Firmarine Day Cream SPF 30 CRème De Jour SPF 30; Firmarine Moisturizer SPF 30; Flawless Future; Flawless Future Moisture; Flawless Tinted Moisturizer Dark SPF 18; Flawless Tinted Moisturizer Light SPF 18; Flawless Tinted Moisturizer Medium SPF 18; Florida Salt Scrubs Florida Grown Broad Spectrum SPF 15 Sunscreen; Florida Salt Scrubs Florida Snowbird Sunscreen 30 Broad Spectrum SPF 30; Flormar BB White BW01 Light; Flormar BB White BW02 Light Medium; Flormar BB White BW03 Dark Medium; Flormar BB White BW04 Medium Beige; Flormar BB White BW05 Natural Beige; Flormar BB White BW06 Warm Beige; Flormar Blur Effect BB Sunscreen Broad Spectrum SPF 30 01 Light; Flormar Blur Effect BB Sunscreen Broad Spectrum SPF 30 02 Light Medium; Flormar Blur Effect BB Sunscreen Broad Spectrum SPF 30 03 Dark Medium; Flormar Radiant Pink Skin Highlighter Sunscreen Broad Spectrum SPF 15; Fluid Foundation SPF 30 Color 01; Fluid Foundation SPF 30 Color 02; Fluid Foundation SPF 30 Color 03; Fluide De Jour; Fluide De Jour Fps 20 Pro-derm; Fluide Desalterant Multi-hydratant SPF 15; Fluide Fondant Desalterant Super Hydratant SPF 15; Fluide Fondant Désalterant SPF 15; Fluide Lift Jour Toutes Peaux - Multi Régénérante - SPF 15; Fluide Protecteur Jeunesse Des Mains SPF 15; Fluide Ãclat Du Jour SPF 15; For Goodness Face Antioxidant Skin Moisturizing Lotion SPF 30; For Men Maca Root Energetic Face Protector; For Men Maca Root Energetic Face Protector SPF 15; Forever Sun Lips; Forever Young Body Butter Broad Spectrum Sunscreen SPF 40 Supergoop; Forever Young Hand Broad Spectrum SPF 40 Supergoop; Forever Young Hand Cream With Sea Buckthorn; Forme Cosmetics Delicious Lip Balm SPF 12; Fps 15 Lait Solaire; Fps 30 Lait Solaire; Fps 30 Soin Complet; Fps 45 Soin Complet; Fps 50 Lait Solaire; Fps 60 Soin Complet; Fre Broad Spectrum; Fresh Black Tea Age-Delay Broad Spectrum Sunscreen SPF 20; Fresh Cooling Body Mist Sunscreen SPF 30; Fresh Cooling Body Mist Sunscreen SPF 45; Fresh Cooling Sunblock Gel SPF 30; Fresh Cooling Sunblock Gel SPF 45; Fresh Cucumber Classic Body SPF 30 Broad Spectrum; Fresh Cucumber Classic Face SPF 30 Broad Spectrum; Fresh Essentials Daily Nourishing Moisturizer; Fresh Sugar Berry Tinted Lip Treatment SPF 15; Fresh Sugar Cherry Tinted Lip Treatment SPF 15; Fresh Sugar Coral Tinted Lip Treatment SPF 15; Fresh Sugar Honey Tinted Lip Treatment SPF 15; Fresh Sugar Passion Tinted Lip Treatment SPF 15; Fresh Sugar Petal Tinted Lip Treatment SPF 15; Fresh Sugar Ruby Tinted Lip Treatment Sunscreen SPF 15; Fresh Sugar Tulip Tinted Lip Treatment Sunscreen SPF 15; Fruit Of The Earth Kids SPF/fps 50; Fruit Of The Earth SPF/fps 30; Fruit Of The Earth SPF/fps 30 Continuous Spray; Fruit Of The Earth SPF/fps 50; Fruit Of The Earth SPF/fps 50 Continuous Spray; Fruit Of The Earth Sport SPF/fps 15; Fruit Of The Earth Sport SPF/fps 15 Continuous Spray; Fruit Of The Earth Sport SPF/fps 30; Fruit Of The Earth Sport SPF/fps 30 Continuous Spray; Fruit Of The Earth Sport SPF/fps 50; Fruit Of The Earth Sport SPF/fps 50 Continuous Spray; Fruit of the Earth Block Up Broad Spectrum Baby SPF 50; Fruit of the Earth Block Up Broad Spectrum Sport SPF 50; Fruit of the Earth Block Up Dry Sport SPF 50 Continuous Sunscreen; Fruit of the Earth Block Up Kids SPF 50; Fruit of the Earth Block Up Kids SPF 50 Continuous Sunscreen; Fruit of the Earth Block Up Kids SPF 50 Moisturizing Sunscreen; Fruit of the Earth Block Up Lite Broad Spectrum SPF 15 Continuous Sunscreen; Fruit of the Earth Block Up Lite Broad Spectrum SPF 30 Continuous Sunscreen; Fruit of the Earth Block Up Lite Kids SPF 50 Continuous Sunscreen; Fruit of the Earth Block Up SPF 30 General Protection Sunscreen; Fruit of the Earth Block Up SPF 30 Sunscreen; Fruit of the Earth Block Up SPF 50; Fruit of the Earth Block Up SPF 50 Full Spectrum Sunscreen; Fruit of the Earth Block Up Sport SPF 30 Continuous Sunscreen; Fruit of the Earth Block Up Sport SPF 30 Sunscreen; Fruit of the Earth Block Up Sport SPF 50 Continuous Sunscreen; Fruit of the Earth Block Up Sport SPF 50 Moisturizing Sunscreen; Fruit of the Earth Block Up Sport SPF 50 No Mess Sun; Fruit of the Earth Block Up Sport SPF 50 Sunscreen; Fruit of the Earth SPF 50 Moisturizing Sunscreen; Fruit of the Earth Sport SPF 50; Fruit of the Earth Sport SPF 50 Sunscreen Continuous; Fruit of the Earth, Inc. Luv That Sun SPF 30 Continuous; Fruit of the Earth, Inc. Ultra SPF 50 Moisturizing Sunscreen; Future Solution Lx Daytime Protective Cream SPF 18; Future Solution Lx Total Protective Cream E; Future Solution Lx Total Protective Emulsion E; GLYTONE Triple Defense Brightening Complex with Sunscreen Broad Spectrum SPF 30; GM Collin 50Plus DRY TOUCH SUN PROTECTION; GUINOT Large Defense uv Medium protection Sunscreen for the body SPF 20; GUINOT Ultra UV Sunscreen High Protection Sun Cream for the face and body SPF 30; Garnier Moisture Rescue Lightweight UV; Garnier Skin Renew Daily Moisture Anti Sun Damage; Garnier Skin Renew Dark Spot Hand Treatment Broad Spectrum SPF 30; Garnier SkinActive Clearly Brighter AntiSun Damage Daily Moisturizer Broad Spectrum SPF 30 Sunscreen; Garnier SkinActive Clearly Brighter Brightening and Smoothing Daily Moisturizer Broad Spectrum SPF 15 Sunscreen; Garnier SkinActive Moisture Bomb Broad Spectrum SPF 30 Sunscreen; Garnier SkinActive Moisture Rescue Actively Hydrating Daily Fragrance Free Broad Spectrum SPF 15; Garnier SkinActive Moisture Rescue Broad Spectrum SPF 15 Sunscreen Oil Free All Skin Types Actively Hydrating Daily; Garnier SkinActive Ultra Lift AntiWrinkle Firming Daily Moisturizer Broad Spectrum SPF 15 Sunscreen; Garnier Ultra Lift Anti Wrinkle Firming Moisturizer; Garnier Ultra Lift Deep Wrinkle Intensive Day; Garnier UltraLift SPF 30 Deep Wrinkle Day; Gel Creme Protecteur SPF 15; Gel Protecteur Ip-6; Gel Protector Solar Protecting Body Milk Lait Corps Protecteur SPF 20; Gel Solaire Bronzage Securite SPF 15 Special Sport; Gelee Fraiche Hydratante SPF 10; Gelee Fraiche Hydratante SPF 15; Gelée Solaire Fraîcheur Protection Faible 8 SPF; General Protection; Geneva Naturals Advanced Anti-Aging with Sunscreen SPF 20; Geneva Naturals Advanced Anti-Aging with Sunscreen SPF 20 Unscented; Gentle Hydrating Day Cream Broad Spectrum SPF 15 Jafra; Gentle Rejuvenation Fortified Sunscreen Broad Spectrum SPF 30 With Vitamin C; Gentle Rejuvenation System; Giorgio Armani Crema Nera Extrema Essential Defense Fluid Broad Spectrum SPF 14 Sunscreen; Giorgio Armani Crema Nera OMC3 Obsidian Mineral Restoring Cream SPF 15; Giorgio Armani Maestro UV Skin Defense Primer Broad Spectrum SPF 50 Sunscreen; Giorgio Armani Regenessence High Lift Muti Firming Rejuvenating Broad Spectrum SPF 15 Sunscreen; Giorgio Armani Regenessence High Lift SPF 15; Glamtox SPF 18; Glaxal Base Lotion SPF 15; Glossier Invisible Shield Daily Sunscreen Broad Spectrum SPF 35; Glossworks Lip Gloss; Glow Face SPF 15 Sunscreen Lotion; Glow and Steady Daily Moisturizer and Gradual Self Tanner SPF 15 for Body; Glycolic Day Cream SPF 30; Glyquin Xm; Glysomed Face Moisturizer; Glytone Body; Glytone Clarifying SunVanish with Sunscreen; Glytone Essentials Rejuvenate daily; Glytone essentials rejuvenate daily; Gold Bond Ultimate Protection; Golden Defense - Moisturizing Sun Lotion SPF 15; GolfersSkin Sunscreen Lip Balm; Got2b Spa Defense; Gp Sunscreen; Gradual Glow Sunless Tanning Milk Broad Spectrum Sunscreen SPF 35; Gradual Self-tanning sunscreen SPF 20 Doctor Ts Supergoop; Grapefruit SPF 30 Broad Spectrum; Green Tea Antioxidant Broad Spectrum SPF 30 PAplusplusplus; Guava Mango Sport SPF 30 Broad Spectrum; H-E-B Dead Sea Organics Protect and Perfect Day Broad Spectrum SPF15; H2O Beauty AQUADEFENSE PROTECTIVE MATCHA SPF 40; HAWAIIAN Tropic; HAWAIIAN Tropic Dry Clear Sunscreen Broad Spectrum SPF 12 water resistant; Hada Labo Tokyo Protecting Day SPF 30; Hand Care Day care Broad Spectrum SPF 15 Jafra; Hand Complex Broad Spectrum SPF 15 Jafra; Hand Cream Intensive Anti-ageing SPF 15; Hand Treatment Regimen; Hand and Décolleté Cream Sunscreen SPF 15; Hanson Daily Moisturizer SPF30; Harmon Face Values Daily Facial; Harmon Face Values Revitalizing Day; Harmon Revitalizing Facial Smoother Immediate Skin Smoothing Finishing Broad Spectrum SPF30 Sunscreen; Haute Exigence Jour SPF 20 Multi-intensive; Hawaiian Tropic; Hawaiian Tropic 30 SPF; Hawaiian Tropic 45 SPF Sunblock; Hawaiian Tropic 60 SPF Fps Sunscreen Lotion Ecran Solaire; Hawaiian Tropic Baby Lotion Sunscreen écran Solaire Pour Bébés 60; Hawaiian Tropic CRème Continuous Flow Sunscreen écran Solaire à écoulement Continu 30 SPF/fps; Hawaiian Tropic Carrot Protective Oil SPF 30; Hawaiian Tropic Creme Continuous Flow Sunscreen Ecran Solaire A Ecoulement Continu 10; Hawaiian Tropic Dry Oil Huile Sèche Sunscreen Spray écran Solaire En Vaporisateur 10; Hawaiian Tropic Dry SPF 30; Hawaiian Tropic Ilk Hydration Weightless; Hawaiian Tropic Island Sport Clear Sunscreen Spray Ecran Solaire Transparent En Vaporisateur 30; Hawaiian Tropic Island Sport SPF 30; Hawaiian Tropic Island Sport SPF 30 for Canada; Hawaiian Tropic Kids Lotion Sunscreen écran Solaire Pour Enfants 60; Hawaiian Tropic Kids SPF 30; Hawaiian Tropic Kids Sunscreen Clear Spray écran Solaire Incolore En Vaporisateur Pour Enfants 60; Hawaiian Tropic Kids Sunscreen Lotion SPF/fps 50+; Hawaiian Tropic Lip Balm Sunscreen Stick; Hawaiian Tropic Lip Balm Sunscreen Stick Broad Spectrum SPF 45; Hawaiian Tropic Oil Spray Huile En Vaporisateur Moisturizing Sunscreen écran Solaire Hydratant 4 SPF/fps; Hawaiian Tropic Oil Spray Moisturizing Sunscreen SPF 4; Hawaiian Tropic Protective Dry Oil Sunscreen Spray SPF/fps 10; Hawaiian Tropic SPF 15; Hawaiian Tropic Sensitive Skin Peau Sensible Face Visage Sunscreen Lotion écran Solaire 30; Hawaiian Tropic Sensitive Skin Peau Sensible Lotion Sunscreen Spray Lotion Ecran Solaire En Vaporisateur 50; Hawaiian Tropic Sheer Touch Clear Sunscreen Spray SPF 30 Ultra Radiance; Hawaiian Tropic Sheer Touch Clear Sunscreen Spray SPF 50+ Ultra Radiance; Hawaiian Tropic Sheer Touch SPF 30; Hawaiian Tropic Sheer Touch Toucher Soyeux Clear Sunscreen Spray écran Solaire Transparent En Vaporisateur 30; Hawaiian Tropic Sheer Touch Toucher Soyeux Clear Sunscreen Spray écran Solaire Transparent En Vaporisateur 60; Hawaiian Tropic Sheer Touch Toucher Soyeux Lotion Sunscreen Ecran Solaire 30; Hawaiian Tropic Sheer Touch Toucher Soyeux Lotion Sunscreen écran Solaire 45; Hawaiian Tropic Sheer Touch Toucher Soyeux Lotion Sunscreen écran Solaire 60; Hawaiian Tropic Sheer Touch Toucher Soyeux Oil-free Sunscreen écran Solaire Sans Huile 15 SPF/fps; Hawaiian Tropic Sheer Touch Toucher Soyeux Oil-free Sunscreen écran Solaire Sans Huile 30 SPF/fps; Hawaiian Tropic Sheer Touch Toucher Soyeux Oil-free Sunscreen écran Solaire Sans Huile 45 SPF/fps; Hawaiian Tropic Sheer Touch Toucher Soyeux Oil-free Sunscreen écran Solaire Sans Huile 60 SPF/fps; Hawaiian Tropic Sheer Touch Toucher Soyeux Oil-free Sunscreen écran Solaire Sans Huile 85 SPF/fps; Hawaiian Tropic Shimmer Effect Oil-free Sunscreen écran Solaire Sans Huile 15 SPF/fps; Hawaiian Tropic Shimmer Effect Oil-free Sunscreen écran Solaire Sans Huile 30 SPF/fps; Hawaiian Tropic Silk Hydration Face Oil-free Sunscreen; Hawaiian Tropic Silk Hydration Sunscreen Lotion écran Solaire 10 SPF/fps; Hawaiian Tropic Silk Hydration Sunscreen Lotion écran Solaire 30 SPF/fps; Hawaiian Tropic Silk Hydration Sunscreen Lotion écran Solaire 50 SPF/fps; Hawaiian Tropic Silk Hydration Weghtless Face; Hawaiian Tropic Silk Hydration Weightless; Hawaiian Tropic Tanning; Hawaiian Tropic Tanning Dry SPF 6; Hawaiian Tropic Touch Of Colour Tinted Sunscreen Spray Lotion SPF 15; Hawaiian Tropic Touch Of Colour Tinted Sunscreen Spray Lotion SPF 4; Healthy Defense Daily Moisturizer SPF 30; Healthy Defense Daily Moisturizer SPF 45; Healthy Defense Sunblock Lotion SPF 30; Healthy Defense Sunblock Lotion SPF 45; Healthy Skin Instant Tone Corrector; Healthy Skin Lift & Firm; Healthy Skin Radiance; Help Me Broad Spectrum SPF 30 Sunscreen Retinol Day Treatment Lotion; Herbal Aloe Face and Body SPF 30; Herbal Serenity Age Defying Hand Treatment SPF 15; Herbalife SKIN 7 Day Results Kit; Herbalife Skin Protective Moisturizer SPF 30; High Performance Sunscreen Lotion SPF 15; High Performance Sunscreen Lotion SPF 30; High Performance Sunscreen Spray SPF 15; High Performance Sunscreen Spray SPF 30; High Protection Lotion SPF 50+; High Protection Spray SPF 50+; High Protection Suncare Oil SPF 30; Homme Aqua Sun Block SPF50 Plus PA 2Plus; Homme Daily Moisturizing Lotion SPF 15; Hope In A Jar Broad Spectrum SPF 25 Sunscreen and Moisturizer for All Skin Types; Hope In A Jar For Dry Skin SPF broad spectrum spf 20 sunscreen and extra-rich moisturizer for normal to dry skin; Hope In A Jar SPF 25; Hourglass Equilibrium Day Fluid SPF 30; Huile Solaire Bronzage Tres Rapide Special Corps Et Protection Des Cheveux SPF 4; Hydra Life CRème Pro-jeunesse Avec Protection Uva/uvb; Hydra Life Fluide Pro-jeunesse Avec Protection Uva/uvb; Hydra Moisturizing Lotion SPF 30; Hydra-Essential SPF 15 Broad Spectrum - SPF 15 - Sunscreen; Hydra-firm Day Lotion SPF-15; Hydra-move Dynamic Moisture Booster SPF 10; Hydra-radiance Moisturizing Day Lotion Lotion De Jour Hydratante SPF/fps15; Hydra-radiance Protecting Day Lotion Lotion De Jour Protectrice SPF/fps30; Hydra-seal SPF 25 / Hydra-scellante SPF 25; Hydra-total 5 Ultra-even Lotion; Hydraday; Hydraday Face Moisturizer SPF 15; Hydraphase Uv Intense; Hydraphel Day Cream SPF 15; Hydraphel Day SPF15; Hydraplasty Face; Hydrasilk Day & Night Cream SPF 12; Hydrasilk Eye Cream SPF 12; Hydrating Antioxidant Moiturizer; Hydrating Day Creme SPF 15; Hydrating Facial SPF-30; Hydrating Lip Balm SPF 15 sunscreen ASAP; Hydrating Protection Sunscreen CVS; Hydrating Protection Sunscreen SPF 30 CVS; Hydrating Protection Sunscreen SPF 50 CVS; Hydrating Tinted Nourisher; Hydrating and Balancing Moisturizer SPF 15; Hydrating day moisture broad spectrum SPF15 Jafra; Hydro Boost Gel Cream SPF 15; Hydro Boost Water Gel Lotion Sunscreen SPF 30; Hydro Boost Water Gel Lotion Sunscreen SPF 50; Hydrosport Sunscreen Spray SPF 30; Hydrosport Sunscreen Spray SPF 50; I-max Excellence; INTELLIGENT BEAUTY LABS Age Defying Day Broad Spectrum SPF 20; IOPE UV Defense Sun Protector SPF 50plus; IPKN Twinkle Flash Cream; IQQU Advance Sunscreen; ISA KNOX 365 SUNSCREEN BROAD SPECTRUM SPF 50 Plus; Iced Pear SPF 15 Broad Spectrum Lip Balm; Idc Fps/SPF 15; Idc Fps/SPF 30; Idc Fps/SPF 50; Ideal Moisture Dry Skin; Ideal Moisture Even Tone; Ideal Moisture Normal Skin; Ideal Moisture Sensitive Skin; Idéal Soleil SPF 60; Illuminating Daily Moisturizer; Illuminating Daily Moisturizer SPF 15; Illuminating Daily Moisturizer SPF 30; Iluma Brightening Hand CRème SPF 15; Image Essentials Daily Illuminating Moisturizer Broad Spectrum SPF 15 Sunscreen; Immortelle Brightening Hand Care SPF 15; In An Instant Daily Tinted Moisturizer SPF 15; In Transit Skin Defence; Infinity; InstaReady Face Primer SPF 18; Instant Dry Mist SPF 50 Sunscreen Spray; Instant Miracle Illusion Smoother SPF 30 CVS; Intensive 3-IN-1 Day Cream SPF 30; Intensive Day Defense SPF 15; Intervene Radiance Boosting Moisture SPF 15; Invisible Protect SPF 30 Cool Gel; Invisible Protect SPF 30 Sheer Spray; Invisible Protect SPF 50 Sheer Spray; Invisible Protect SPF 50+ Cool Gel; Invisiblur Perfecting Shield Broad Spectrum SPF 30 Pa+++; Iope Men Uv Defense Sun Protector; Iope Uv Defense Sun Protector; Ipkn City Proof Sun Mist; Islander Spf6; Ivory Silk's Whitening Essence for Day Use; J0830014 Jason Sun Family Sunscreen SPF45; Jafra Pro; Jafra Pro Face Lift SPF 20; Jane Seymour Oil-Free Tinted Moisturizer with SPF 55; Jason Sun Facial Sunscreen Broad Spectrum SPF20; Jason Sun Family Sunscreen Broad Spectrum SPF45; Jason Sun Kids Sunscreen Broad Spectrum SPF45; Jason Sun Sport Sunscreen Broad Spectrum SPF45; Jergens BB Body; Jergens BB Hand SPF 20; Jergens Bb Hand Perfecting Hand Cream With Sunscreen; Jergens Bb Protect Perfecting Body Cream With Sunscreen; Jergens Natural Glow Daily Moisturizer with Sunscreen SPF 20; Jergens Natural Glow Face Daily Moisturizer for Fair/Medium Skin; Jergens Natural Glow Face Daily Moisturizer for Medium/Tan Skin; Jergens Natural Glow éclat Naturel Daily Facial Moisturizer With Sunscreen; Johnson's Ph5.5 Triple Effect Fluid SPF 15; Julep Lip Shade Sheer Lip Butter Almond Nude SPF 30; Julep Lip Shade Sheer Lip Butter Crimson SPF 30; Julep Lip Shade Sheer Lip Butter Currant SPF 30; Julep Lip Shade Sheer Lip Butter Dahlia SPF 30; Julep Lip Shade Sheer Lip Butter Lace SPF 30; Julep Lip Shade Sheer Lip Butter Macaroon SPF 30; Julep Lip Shade Sheer Lip Butter Petal SPF 30; Julep Lip Shade Sheer Lip Butter Plumeria SPF 30; Julep Lip Shade Sheer Lip Butter Poppy SPF 30; Julep Lip Shade Sheer Lip Butter Primrose SPF 30; Julep Lip Shade Sheer Lip Butter Raisin SPF 30; Jurlique SPF40 High Protection Sunscreen; KISS MY FACE SUNSCREEN sun broad spectrum spf 30; Kara Vita Moisturizing Sunscreen With Dnarescue; Kara Vita SPF 29; Karanja Tree Sunshield SPF 30 Molton Brown Skin Care; Karavita Face Essential with SPF 15; Karavita Secret Code DNA Rescue Lip Care; Key West Tan SPF15; Kid's Sun Screen; Kid's Sunscreen SPF 30 Lotion; Kids (80 Minutes) Water Resistant Lotion SPF 30; Kids Disappearing Color SPF50 Broad Spectrum Suncreen Green Apple Scented; Kids Disappearing Color SPF50 Broad Spectrum Suncreen Pink Strawberry Scented; Kids Enfants Splash 30 SPF/fps; Kids Enfants Splash 50 SPF/fps Sunscreen Spray Ecran Solaire En Vaporisateur; Kids Lotion SPF 30; Kids Pour Enfants Sunscreen Lotion écran Solaire SPF/fps 60; Kids Powder-dri Pour Enfants Sunscreen Lotion Ecran Solaire SPF/fps 30; Kids SPF 30+ Spray-ON Sunscreen; Kids SPF 30+ Sunscreen; Kids SPF 45 Sunscreen Spray; Kids SPF 50 Sunscreen Spray; Kids Sprayable Sunscreen Lotion SPF 50; Kids Sunscreen; Kids Sunscreen Continuous Spray; Kids Sunscreen Continuous Spray SPF/fps 60; Kids Sunscreen Lotion SPF 100; Kids Sunscreen Lotion SPF/fps 60; Kids Sunscreen SPF 50; Kids Sunscreen SPF 70; Kids Sunscreen Spray SPF 100; Kids Sunscreen Stick écran Solaire En Bâtonnet Pour Enfants SPF Fps 50; Kids Tear Free Sans Larmes Sunscreen Spray écran Solaire En Vaporisateur Pour Enfants SPF Fps 30; Kids Tear Free Sans Larmes Sunscreen Spray écran Solaire En Vaporisateur Pour Enfants SPF Fps 50; Kids Tear Free/ Sans Larmes Sunscreen Spray écran Solaire En Vaporisateur Pour Enfants SPF Fps 60; Kids Wet & Dry Sunscreen SPF 60; Kids'sunscreen Broad Spectrum SPF 60 Spray; Kids/enfants SPF/fps 50; Kiehls Since 1851 Activated Sun Protector Broad Spectrum SPF 30 Sunscreen Water Resistant 80 MInutes; Kiehls Since 1851 Activated Sun Protector Broad Spectrum SPF 30 Sunscreen for Body; Kiehls Since 1851 Activated Sun Protector Broad Spectrum SPF 50 Sunscreen; Kiehls Since 1851 Activated Sun Protector Broad Spectrum SPF 50 Sunscreen Water Resistant 80 MInutes; Kiehls Since 1851 Activated Sun Protector For Body Broad Spectrum SPF 50 Sunscreen; Kiehls Since 1851 Activated Sun Protector for Face Broad Spectrum SPF 50 Sunscreen; Kiehls Since 1851 Broad Spectrum SPF 30 Sunscreen Powerful Wrinkle Reducing; Kiehls Since 1851 Butterstick Lip Treatment Broad Spectrum SPF 25 Sunscreen; Kiehls Since 1851 CrossTerrain UV Skin Protector Broad Spectrum SPF 50 Sunscreen Water Resistant 80 Minutes; Kiehls Since 1851 CrossTerrain UV Skin Protector SPF 50 Water and Sweat Resistant Sunscreen; Kiehls Since 1851 Dermatologist Solutions Activated Sun Protector Sunscreen Broad Spectrum SPF 50 For Body; Kiehls Since 1851 Dermatologist Solutions Super Fluid UV Defense Ultra Light Sunscreen SPF 50 Plus; Kiehls Since 1851 Dermatologist Solutions SuperFluid UV Defense Broad Spectrum SPF 50 Plus Sunscreen; Kiehls Since 1851 Facial Fuel Energizing Moisture Treatment for Men Broad Spectrum SPF 15 Sunscreen; Kiehls Since 1851 Facial Fuel UV Guard Broad Spectrum SPF 50 Plus Sunscreen WR80; Kiehls Since 1851 Facial Fuel UV Guard Fast Absorbing Sunscreen for Men SPF 50 Plus; Kiehls Since 1851 Super Multi Corrective Broad Spectrum SPF 30 Sunscreen; Kiehls Since 1851 Ultra Facial Broad Spectrum SPF 30 Sunscreen; Kiehls Since 1851 Ultra Facial Moisturizer Broad Spectrum SPF 30 Sunscreen For All Skin Types; Kiko Milano Bright Lift Day; Kiko Milano Bright Lift Matte; Kiko Milano Hydra Pro Day; Kiko Milano Sublime Youth Day; Kinerase SPF 15 Cream; Kinesys Broad Spectrum SPF 15 Alcohol-free Sunscreen; Kinesys Broad Spectrum SPF 30 Alcohol-Free Performance Sunscreen - Fragrance Free; Kinesys Broad Spectrum SPF 30 Alcohol-Free Performance Sunscreen Fragrance-Free; Kinesys Broad Spectrum SPF 30 Alcohol-Free Sunscreen; Kinesys Broad Spectrum SPF 30 Alcohol-Free Sunscreen - Mango Scent; Kinesys Broad Spectrum SPF 30 Girl Alcohol-Free Sunscreen; Kinesys Broad Spectrum SPF 30 KiDS Alcohol-Free Sunscreen; Kinesys Broad Spectrum SPF 30 Kids Alcohol-Free Sunscreen; Kinesys Broad Spectrum SPF 30 girl Alcohol-Free Sunscreen; Kinesys Broad Spectrum SPF 50 Alcohol Free Sunscreen; Kinesys SPF 50 Funscreen Sunscreen for Kids; Kiss My Face Bare Naked Broad Spectrum SPF 30; Kiss My Face Cool Sport SPF 50 Broad Spectrum; Kiss My Face Kids Defense Broad Spectrum SPF 50; Kiss My Face SPF 30 Face Stick; Kiss My Face SPF 30 Lip Balm; Kiss My Face SPF 30 Sport Lip Balm; Kiss My Face SPF 30 Sport Treatmint Lip Balm; Kiss Therapy SPF 30 Grapefruit; Kiss Therapy SPF 30 Strawberry; Kiss Therapy SPF 30 Superfruit; Klenskin Broad Spectrum SPF-50; Klenskin Kids Showeron Sunscreen SPF-30; Klenskin Showeron Sunscreen SPF-30; Klenskin Showeron Sunscreen Spa SPF-30; Klenskin Sunbar SPF-20; Korres Suncare Yoghurt Nourishing Fluid Veil Face Sunscreen Broad Spectrum SPF 30; Korres Suncare Yoghurt Nourishing Milk Body Sunscreen Broad Spectrum SPF 44; Kroger Baby SPF 50; Kroger Baby Sunscreen SPF 70; Kroger Kids SPF 50 Sunstick; Kroger Kids Sunscreen SPF 70; Kroger Kids Tear Free Spf50; Kroger Kroger Kids Sunscreen SPF 50; Kroger Oil Free Sunscreen SPF 30; Kroger SPF 15; Kroger SPF 50; Kroger Sheer Dry Touch Sunscreen SPF 55; Kroger Sheer Dry Touch Sunscreen SPF 70; Kroger Sheer dry-touch SFP 30; Kroger Sport SPF 50 Sunstick; Kroger Sport Sunscreen SPF 30; Kroger Sport Sunscreen SPF 50; Kroger Sport sunscreen SPF 50; Kroger Sunscreen SPF 30; L OCCITANE AU BRESIL - JENIPAPO Lip Gloss SPF 25 Broad Spectrum; L OCCITANE AU BRESIL - JENIPAPO Protecting Body Jelly Milk SPF 20 Broad Spectrum; L OCCITANE AU BRESIL - JENIPAPO Protecting Body SPF 15 Broad Spectrum; L OCCITANE FRESH BODY with Organic Verbena Extract SPF25 Broad Spectrum Sunscreen; L Occitane Cade Protective Moisturizing Fluid - for Men Broad Spectrum SPF 20 Sunscreen; L Occitane Immortelle Brightening Hand Care Broad Spectrum SPF 20 Sunscreen; L Occitane Immortelle Precious Protection Broad Spectrum SPF 20 Sunscreen; LA Bodies Eclipse Sunscreen SPF 30; LA Bodies Eclipse Sunscreen SPF 50; LA MER THE REPARATIVE BODY SUN Broad Spectrum SPF 30; LA MER THE REPARATIVE FACE SUN Broad Spectrum SPF 30; LA Mer The Broad Spectrum SPF 50 Uv Protecting Fluid; LA Mer The Reparative Body Sun Lotion SPF 30; LA Mer The Reparative Face Sun Lotion SPF 30; LA Mer The SPF 18 Fluid; LA Mer The SPF 18 Fluid Tint; LA Mer The SPF 50 Uv Protecting Fluid; LASHappeal Eye Results with SPF 15; LAURA GELLER BEAUTY SUN KISSED COLOR LIP BALM TRIO BROAD SPECTRUM SPF 15 Pink - Coral - Berry; LAURA GELLER spackle Broad Spectrum SPF 30 protective under make-up primer; LBEL DEFENSE TOTAL broad spectrum SPF 50 plus sunscreen for face and body; LBEL DEFENSE TOTAL broad spectrum SPF 50plus sunscreen for face and body; LBEL Defense Total broad spectrum SPF 50 plus sunscreen for face and body; LBEL Defense Total broad spectrum SPF 50plus sunscreen for face and body; LBEL ESSENTIAL Deep moisturizing and oxygenating SPF 20 normal to dry skin; LBEL ESSENTIAL Deep moisturizing and oxygenating SPF 20 normal to oily skin; LBEL ESSENTIAL deep moisturizing and oxygenating SPF 20 normal to oily skin; LBEL ESSENTIAL moisturizing and oxygenating SPF 20 normal to dry skin; LBEL LEDERM 35 plus JOUR Facial against first signs of aging; LBEL LEDERM 35plus Jour SPF 15 Facial Treatment Against First Signs of Aging Day - Normal to Dry Skin; LBEL LEDERM 35plus Jour SPF 15 Facial Treatment Against First Signs of Aging Day - Oily Skin; LBEL LEDERM 45 plus JOUR Facial against noticeable signs of aging; LBEL LEDERM 45plus Jour SPF 15 Facial Treatment Against Noticeable Signs of Aging Day - Normal to Dry Skin; LBEL LEDERM 45plus Jour SPF 15 Facial Treatment Against Noticeable Signs of Aging Day - Oily Skin; LBEL LEDERM 55 plus JOUR Facial against advanced signs of aging; LBEL LEDERM 55plus Jour SPF 15 Facial Treatment Against Advanced Signs of Aging Day - All Skin Types; LBel Paris Regression Jour; LBri Pure nNatural Oil Free Moisturizer; LEDERM DAY SUNSCREEN BROAD SPECTRUM SPF 15 day facial SPF 15 against noticeable signs of aging all skin types; LIPSTICK QUEEN ENDLESS SUMMER Broad Spectrum SPF 15 Sunscreen; LOCCITANE ALMOND VELVET HANDS Youthful Hand Broad Spectrum SPF 15 Sunscreen; LOreal Paris Advanced Suncare Invisible Protect Clear Cool 30 Broad Spectrum SPF 30 Sunscreen; LOreal Paris Advanced Suncare Invisible Protect Clear Cool 50 Plus Broad Spectrum SPF 50 Plus Sunscreen; LOreal Paris Advanced Suncare Invisible Protect Dry 15 Sunscreen Broad Spectrum SPF 15; LOreal Paris Advanced Suncare Invisible Protect Dry 30 Broad Spectrum SPF 30 Sunscreen; LOreal Paris Advanced Suncare Invisible Protect Dry 50 Plus Broad Spectrum SPF 50 Plus Sunscreen; LOreal Paris Advanced Suncare Invisible Protect Sheer 30 Broad Spectrum SPF 30 Sunscreen; LOreal Paris Advanced Suncare Invisible Protect Sheer 50 Plus Broad Spectrum SPF 50 Plus; LOreal Paris Advanced Suncare Quick Dry Sheer Finish 30 Broad Spectrum SPF 30 Sunscreen; LOreal Paris Advanced Suncare Quick Dry Sheer Finish 50 Plus Broad Spectrum SPF 50 Plus Sunscreen; LOreal Paris Advanced Suncare Silky Sheer 30 Broad Spectrum SPF 30 Sunscreen; LOreal Paris Advanced Suncare Silky Sheer 50 Plus Broad Spectrum SPF 50 Plus Sunscreen; LOreal Paris Advanced Suncare Silky Sheer BB Face 50 Plus Broad Spectrum SPF 50 Plus Sunscreen; LOreal Paris Advanced Suncare Silky Sheer Face 30 Broad Spectrum SPF 30 Sunscreen; LOreal Paris Advanced Suncare Silky Sheer Face 50 Plus Broad Spectrum SPF 50 Plus Sunscreen; LOreal Paris Age Perfect Cell Renewal Day Moisturizer Broad Spectrum SPF 15 Sunscreen; LOreal Paris Age Perfect Glow Renewal Day Moisturizer Broad Spectrum SPF 30 Sunscreen; LOreal Paris Age Perfect Hydra Nutrition Instant Glow Daily Broad Spectrum SPF 30 Sunscreen; LOreal Paris Ideal Moisture Dry Skin Broad Spectrum SPF 25 Sunscreen; LOreal Paris Ideal Moisture Even Skin Tone Moisturizer Broad Spectrum SPF 25 Sunscreen; LOreal Paris Ideal Moisture Normal Skin Broad Spectrum SPF 25 Sunscreen; LOreal Paris Ideal Moisture Sensitive Skin Broad Spectrum SPF 25 Sunscreen; LOreal Paris Men Expert Comfort Max Hydra Energetic After Shave Balm Broad Spectrum SPF 15 Sunscreen; LOreal Paris Men Expert Vita Lift Daily Moisturizer Sunscreen Broad Spectrum SPF 15; LOreal Paris Revitalift Clinical Repair 10 SPF 20; LOreal Paris Revitalift Miracle Blur Broad Spectrum SPF 30 Sunscreen; LOreal Paris Revitalift Triple Power Broad Spectrum SPF 30 Sunscreen; LOreal Paris Skin Expert Revitalift Bright Reveal Brightening Day Moisturizer Broad Spectrum SPF 30 Sunscreen; LOreal Paris Skin Expertise Age Perfect Broad Spectrum SPF 20 Sunscreen BB; LOreal Paris Skin Expertise Revitalift Complete SPF 30 Day AntiWrinkle and Firming Moisturizer; LOreal Paris Skin Expertise Revitalift Deep-Set Wrinkle Repair Eye Cream 24 Hour Eye Repair Duo SPF 15; LOreal Paris Sublime Sun 30 Crystal Clear Sunscreen Mist Broad Spectrum SPF 30 Water Resistant; LOreal Paris Sublime Sun Advanced Sunscreen SPF 30; LOreal Paris Sublime Sun Advanced Sunscreen SPF 30 Crystal Clear Mist; LOreal Paris Sublime Sun Advanced Sunscreen SPF 30 Hydra; LOreal Paris Sublime Sun Advanced Sunscreen SPF 50 Plus; LOreal Paris Sublime Sun Advanced Sunscreen SPF 50 Plus Crystal Clear Mist; LOreal Paris Sublime Sun Advanced Sunscreen SPF 50 Plus Hydra; LOreal Paris Sublime Sun Advanced Sunscreen SPF 50 Plus Liquid Silk Sunshield For Face; LOreal Paris Visible Lift CC Broad Spectrum SPF 20 Light Medium; LOreal Paris Visible lift Medium Deep CC Broad Spectrum SPF 20; LOreal Paris Youth Code Dark Spot Corrector Broad Spectrum SPF 30 Sunscreen; LOreal Paris Youth Code Day; LUMENE Sensitive Touch Daily Moisture SPF 15 Sunscreen; La Creme P; La Prairie Switzerland Anti-Aging Day Cream SPF 30; La Prairie Switzerland Anti-Wrinkle SunScreen SPF 30; La Prairie Switzerland Cellular Radiance Emulsion; La Roche Posay Anthelios 30 Ultralight Sunscreen; La Roche Posay Anthelios 60 Ultralight Sunscreen; La Roche Posay Laboratoire Dermatologique Anthelios 30 Cooling Water Broad Spectrum SPF 30 Sunscreen; La Roche Posay Laboratoire Dermatologique Anthelios 45 Ultra Light Sunscreen Fluid Broad Spectrum SPF 45 Sunscreen Water Resistant 40 Minutes; La Roche Posay Laboratoire Dermatologique Anthelios 45 Ultra Light Sunscreen Fluid Water Resistant 40; La Roche Posay Laboratoire Dermatologique Anthelios 50 Daily Antiaging Primer with Sunscreen; La Roche Posay Laboratoire Dermatologique Anthelios 60 Breakout Free Oil Free Face Dry Touch Broad Spectrum SPF 60 Sunscreen Water Resistant 80 Minutes; La Roche Posay Laboratoire Dermatologique Anthelios 60 Face Ultra Light Fluid Sunscreen Broad Spectrum SPF 60; La Roche Posay Laboratoire Dermatologique Anthelios 60 Face and Body Cooling Water Broad Spectrum SPF 60 Sunscreen Water Resistant 80 Minutes; La Roche Posay Laboratoire Dermatologique Anthelios 60 Melt In Sunscreen Milk Broad Spectrum SPF 60 Face and Body; La Roche Posay Laboratoire Dermatologique Anthelios 60 Melt In Sunscreen Milk Face and Body Broad Spectrum SPF 60 Water Resistant 80 Minutes; La Roche Posay Laboratoire Dermatologique Anthelios 60 Ultra Light Sunscreen Broad Spectrum SPF 60 Water Resistant 80 Minutes; La Roche Posay Laboratoire Dermatologique Anthelios 60 Ultra Light Sunscreen Fluid; La Roche Posay Laboratoire Dermatologique Anthelios AOX Daily Antioxidant Serum Broad Spectrum SPF 50 Sunscreen; La Roche Posay Laboratoire Dermatologique Anthelios Dermo Kids Gentle Face and Body Broad Spectrum SPF 60 Sunscreen Water Resistant 80 Minutes; La Roche Posay Laboratoire Dermatologique Anthelios SX Daily Moisturizing Sunscreen Broad Spectrum SPF 15; La Roche Posay Laboratoire Dermatologique Hydraphase UV Intense Broad Spectrum SPF 20 Sunscreen; La Roche Posay Laboratoire Dermatologique Hydraphase UV Intense Moisturizer Broad Spectrum SPF 20 Sunscreen; La Roche Posay Laboratoire Dermatologique Pigmentclar Daily Dark Spot Correcting Moisturizer Broad Spectrum SPF 30 Sunscreen; La Roche Posay Laboratoire Dermatologique Toleriane Double Repair Moisturizer UV Broad Spectrum SPF 30 Sunscreen; La Roche Posay Redermic C UV Sunscreen; La Roche Posay Redermic plus UV Intensive Daily Antiwrinkle Firming Fill In Care; La Roche-Posay Laboratoire Dermatologique Anthelios 45 Ultra Light Sunscreen Fluid SPF 45; La Roche-Posay Laboratoire Dermatologique Anthelios 60 Ultra Light Sunscreen Fluid; La Roche-Posay Laboratoire Pharmaceutique Anthelios 60 Melt-In Sunscreen Lotion SPF 60; La Roche-Posay Laboratoire Pharmaceutique Anthelios 60 Melt-In Sunscreen Milk SPF 60; La Roche-Posay Laboratoire Pharmaceutique Rosaliac UV Fortifying Anti-Redness Moisturizer SPF 15; Lab Series Skincare for Men Daily Moisture Defense Broad Spectrum SPF 15; Lab Series Skincare for Men Daily Moisture Defense Lotion SPF 15; Lacura Face Care Q10 Day SPF-15; Lait Auto-bronzant SPF 6; Lait De Soin Bronzant Mer Et Tropiques; Lait De Soin Solaire Corps; Lait De Soin Solaire Mer Et Tropiques Corps; Lait Ecran Extreme SPF 60; Lait Ecran SPF 35 Enfants; Lait Ecran Total Intolerances Solaires SPF 30; Lait Ecran Total SPF 25; Lait Ecran Total Special Enfants SPF 25; Lait Protecteur Fps 60; Lait Protecteur Hydro-satinant Spf15; Lait Protecteur SPF 15; Lait Protecteur SPF 8; Lait Solaire Corps Protection Solaire Fps 15; Lait Solaire Corps Sunscreen Lotion Body; Lait Solaire Ecran Total SPF 25; Lait Solaire Haute Protection SPF 15; Lait Solaire Protection Modérée Corps; Lait Solaire Protection élevée Corps; Lait écran Total SPF 25; Laline Rich Hand Cream; Lancome Bienfait UV SPF 50 Plus Super Fluid Facial Sunscreen; Lancome Creme Ecran Total SPF 25; Lancome Lait Ecran Total Hydro-satin.spf25; Lancome Paris Absolue Hand Premium Bx Broad Spectrum SPF 15 Sunscreen Absolute Anti Age Spot Unifying And Replenishing Treatment; Lancome Paris Absolue Precious Cells Broad Spectrum SPF 15 Sunscreen Intense Revitalizing; Lancome Paris Absolue Precious Cells Sunscreen Repairing and Recovering Day; Lancome Paris Absolue Premium Bx Absolute Replenishing SPF 15; Lancome Paris Absolue Premium Bx Broad Spectrum SPF 15 Sunscreen Absolute Replenishing; Lancome Paris Absolue Premium Bx Replenishing and Rejuvenating Day; Lancome Paris Bienfait MultiVital Broad Spectrum SPF 30 Sunscreen; Lancome Paris Bienfait MultiVital Broad Spectrum SPF 30 Sunscreen 24 Hour Moisturization Antioxidant and Vitamin Enriched; Lancome Paris Bienfait UV 50 Plus Broad Spectrum SPF 50 Plus Water Resistant 80 Minutes Super Fluid Facial Sunscreen; Lancome Paris Flash Bronzer AntiAge Tinted Antiage SelfTanning Face Lotion SPF 15; Lancome Paris High Resolution Refill 3X Triple Action Renewal Anti Wrinkle Broad Spectrum SPF 15 Sunscreen; Lancome Paris Renergie Lift Multi Action All; Lancome Paris Renergie Lift Multi Action Broad Spectrum SPF 15 Sunscreen Lifting and Firming for Dry Skin; Lancome Paris Renergie Lift MultiAction Dry; Lancome Paris Renergie Lift MultiAction Sunscreen Broad Spectrum SPF 15 Lift and Firming Face and Neck All Skin Types; Lancome Paris Renergie Lift MultiAction Ultra Firming and Dark Spot Correcting Moisturizer Broad Spectrum SPF 30 Sunscreen; Lancome Paris Renergie Lift Volumetry Volumetric Lifting and Reshaping SPF 15 Normal Combination Skin; Lancome Paris Renergie Lift Volumetry Volumetric Lifting and Reshaping SPF 15 Normal to Dry Skin; Lancome Paris Visionnaire Broad Spectrum SPF 20 Sunscreen Advanced Multi Correcting All Skin Types; Lancome-creme Autobronzante Visage Crm; Lancôme Bienfait Total Uv SPF 15; Laneige Triple Sunscreen; Lanocreme Hydrating Day Spf15; Large Defense Uv; Large écran Uv Ultra Uv Sunscreen; Laser Block 100 sunblock; Lasting Results Moisturizer; Laszlo Blue Cream/crème SPF 30; Laura Geller Beauty Tuscan Sun Spackle SPF 30 Protective Under Make-UP Primer Deep; Laura Geller Beauty Tuscan Sun Spackle SPF 30 Protective Under Make-UP Primer Fair; Laura Geller Beauty Tuscan Sun Spackle SPF 30 Protective Under Make-UP Primer Medium; Laura Geller Beauty Tuscan Sun Spackle SPF 30 Protective Under Make-UP Primer Porcelain; Laura Geller Beauty Tuscan Sun Spackle SPF 30 Protective Under Make-UP Primer Tan; Laura Mercier Flawless Skin Mega Moisture Creme Broad Spectrum SPF 15 Sunscreen for Normal/Dry Skin; Laura Mercier Flawless Skin Moisture Creme Broad Spectrum SPF 15 Sunscreen for Normal/Combination Skin Flawless skin Mega Moisturizer SPF-15 NORMAL COMBINATION; Laura Mercier Flawless Skin Repair Day Broad Spectrum SPF 15 Sunscreen; Laura Mercier Flawless Skin Repair Oil Free Day Broad Spectrum SPF 15; Laura Mercier Flawless Skin Repair Oil Free Day Broad Spectrum SPF 15 Sunscreen; Laura Mercier Foundation Primer Protect SPF 30; Laura Mercier Tinted Moisturizer - Illuminating Broad Spectrum SPF 20 Sunscreen - Bare Radiance; Laura Mercier Tinted Moisturizer - Illuminating Broad Spectrum SPF 20 Sunscreen - Bronze Radiance; Laura Mercier Tinted Moisturizer - Illuminating Broad Spectrum SPF 20 Sunscreen - Natural Radiance; Laura Mercier Tinted Moisturizer - Illuminating Broad Spectrum SPF 20 Sunscreen - Warm Radiance; Laura Mercier Tinted Moisturizer Broad Spectrum SPF 20 Sunscreen - Blush; Laura Mercier Tinted Moisturizer Broad Spectrum SPF 20 Sunscreen - Cameo; Laura Mercier Tinted Moisturizer Broad Spectrum SPF 20 Sunscreen - Caramel; Laura Mercier Tinted Moisturizer Broad Spectrum SPF 20 Sunscreen - Mocha; Laura Mercier Tinted Moisturizer Broad Spectrum SPF 20 Sunscreen - Natural; Laura Mercier Tinted Moisturizer Broad Spectrum SPF 20 Sunscreen - Ochre; Laura Mercier Tinted Moisturizer Broad Spectrum SPF 20 Sunscreen - Tawny; Laura Mercier Tinted Moisturizer Creme Compact Broad Spectrum SPF 20 Sunscreen CAMEO; Laura Mercier Tinted Moisturizer Creme Compact Broad Spectrum SPF 20 Sunscreen NATURAL; Laura Mercier Tinted Moisturizer Creme Compact Broad Spectrum SPF 20 Sunscreen OCHRE; Laura mercier Moisturizer cream with SPF 15; Lbel Dermo Clarite; Lbel Dermo Clarite Clarifying and Moisturizing With SPF 30; Lbel Lederm Day Sunscreen Broad Spectrum SPF 15; Lbel Regression Jour Protective Complex With SPF 15 Facial Day Normal To Dry Skin; Leader Baby Sunscreen SPF 50; Leader GP SPF 15 CS; Leader General Protection SPF 30; Leader General Protection SPF 70; Leader General Protection Sunscreen SPF 30; Leader General Protection Sunscreen SPF 50; Leader Kids SPF 50 Sunscreen; Leader Kids SPF 90; Leader Sport SPF 30; Leader Sport SPF 50; Leader Sport Sunscreen SPF 50; Leaders Sunbuddy All Over Sun; Leaders Sunbuddy Daily Moisture Sunscreen; Lee Hands Free Lip-balm SPF 30; Life Brand Kids Sunscreen Clear Continuous Spray SPF/fps 60; Life Brand Shimmering Lotion Scintillante  Oil Free Sunscreen écran Solaire Sans Huile 15 SPF/fps Protection Uva/uvb Broad Spectrum à Large Spectre; Life Brand Sport Sunscreen Broad Spectrum Spray; Life Brand Sport Sunscreen Continuous Spray No Pumping Needed; Life Brand Sunblock 30 SPF - Lot Top; Life Brand Sunscreen Continuous Spray Coconut Lime Scented SPF/fps 30; Life Brand Sunscreen Continuous Spray No Pumping Needed SPF/fps 85; Life Brand Sunscreen Continuous Spray Pomegranate Scented SPF/fps 30; Life Brand Sunscreen Lotion Écran Solaire 30 SPF/fps; Life Brand Sunscreen Lotion Écran Solaire 45 SPF/fps; Life Brand Sunthera 3 SPF/fps 15; Life Brand Sunthera 3 SPF/fps 30 Sun Protection Lotion Face; Life Brand Sunthera 3 SPF/fps 60 Sun Protection Lotion Face; Life Brand Sunthera3 Gradual Sunless Colour Moisturizer SPF/fps 15; Life Brand Sunthera3 Sport SPF/fps 60 Sun Protection Lotion Lotion écran Solaire; Life Extension Shade Factor SPF30; Lifecell BROAD SPECTRUM SPF 50 BB SHEER; Lift Therapy Force Lift Day 20 SPF; Lift-me day cream with Anti-Ageing and Regenerative Silicium - UV Filters; Liftactiv Cxp Uv SPF 20; Liftactiv Uv; Liftactivpro SPF 15; Light Care Aqua Sun; Light Day Sunscreen Broad Spectrum SPF 37; Light and Delicate Sunscreen Spf15; Light and Delicate Sunscreen Spf30; Lightening High Sun Protection Cream; Limitless Long Wear Lip Gloss SPF 15; Line Interception Power Duo Day Cream Suncreen Broad Spectrum SPF 30; Line Interception Power Duo Day Cream Sunscreen Broad Spectrum SPF 30; Linea Jose Ignacio Sunscreen Broad Spectrum SPF30; Lip Balm; Lip Balm Mint Cvs; Lip Balm SPF 30; Lip Balm SPF15 Sunscreen SPF30 Combo; Lip Balm Spf30 Cvs; Lip Care SPF 20; Lip Enhancer Gloss Sunscreen Broad Spectrum Spf15; Lip Gloss; Lip Massage; Lip Protector SPF 15 Sunscreen; Lip Treatment; Lip and Cheek Treat Broad Spectrum SPF 40 Supergoop; LipLux Original SPF 30 Broad Spectrum; Lipidol; Liplux Vanilla Peppermint SPF 15 Broad Spectrum; Liquid Spray Sunscreen; Loccitane Immortelle Divine Spf20; Loccitane Immortelle Precious Spf20; Loccitane Pivoine Sublime With Peony Broad Spectrum SPF 25; Loccitane Pivoine Sublime With Peony Broad Spectrum SPF 25 Sunscreen Rose Amber; Loccitane Pivoine Sublime With Peony Broad Spectrum SPF 25 Sunscreen Rose Nude; Loccitane Pivoine Sublime With Peony Broad Spectrum SPF 25 Sunscreen Rose Plum; Long-Lasting Oil-Free Moisturizer; Lorac Foundation Deep SPF20; Lorac Foundation Fair SPF20; Lorac Foundation Golden Light SPF20; Lorac Foundation Golden Tan SPF20; Lorac Foundation Light Beige SPF20; Lorac Foundation Light SPF20; Lorac Foundation Medium Beige SPF20; Lorac Foundation Medium SPF20; Lorac Foundation Medium Tan SPF20; Lorac Foundation Tan SPF20; Lotion SPF 15; Lotion SPF 30; Lotion SPF 45; Lotion Solaire Anti-âge; Lotion Sport; Lotion Vapo Fps 15; Lotion Vapo SPF 30; Lotion écran Solaire 30; Lotion écran Solaire Universel Fps 15 Avec Dioxyde De Titane; Lotion écran Solaire Universel Fps 30 Avec Dioxyde De Titane; Lovely Me EX 32900042; Lovely Me:ex Bb Cream SPF 20/pa++; Lubriderm; Lubriderm Daily Moisture Sunscreen Broad Spectrum SPF15; Lubriderm Daily Moisture with Sunscreen Broad Spectrum SPF15; Lubriderm Lotion Daily Uv Defense SPF 15; Lubriderm Uv Moisture; Lumene Bright Now Visible Repair Day SPF 15 Sunscreen Broad Spectrum; Lumene Bright Now Vitamin C Day SPF 15 Sunscreen Broad Spectrum; Lumene Bright Now Vitamin C Moisturizer; Lumene Complete Rewind Recovery Day SPF 15 Sunscreen Broad Spectrum; Lumene Excellent Future Age-Defying and Repairing Day SPF 15 Sunscreen; Lumene Premium Beauty Rejuvenating Day; Lumene Sisu Moisture Remedy Day Sunscreen Broad Spectrum SPF 20; Lumene Time Freeze Firming Day SPF 15; Lumene Time Freeze Firming Day SPF 15 Sunscreen Broad Spectrum; Lumene Valo Day Moisturizer SPF 15 Sunscreen Broad Spectrum SPF 15; Lumene Vitamin C Pure Radiance Day; Lumiactiv; Luminous Intensive Decollote Treatment SPF 20; Luminous Intensive Décolleté Cream Treatment SPF 20; Luminous Intensive Hand Cream Treatment SPF 25; Luminous Intensive Hand Treatment SPF 25; Lumipearl Perfect and Protect Day Broad Spectrum SPF 25 Sunscreen; Lustra-AF; LypSyl Honeyberry; LypSyl Vanilla Plum Intense Protection; M.A.C. Studio Moisture Fix SPF 15; M.A.c Prep + Prime Bb Beauty Balm SPF 50; M.A.c Prep + Prime Face Protect Lotion SPF 50; M.A.c Suntints SPF 20 Liquid Lip Balm; M.A.c Tendertone Lip Balm SPF 12; MAMONDE Daily Sunscreen; MAMONDE UV Fluid; MDSolarSciences SPF 40 Quick Dry; MDSolarSciences SPF40 No Touch Body; MEIJER Sport SPF 30; MISSHA All Around Safe Block Daily Sun For Men SPF50; MISSHA All Around Safe Block Fresh Sun SPF50; MKMen Advanced Facial Hydrator Sunscreen SPF 30; MKMen Moisturizer Sunscreen Broad Spectrum SPF 25; MOROCCAN Lightweight Hydrating Sun Protection SPF 30; Mac Tendertone Lip Balm SPF 12; Macroantioxidant Sun Protection; Makeup Setting with Green Tea Aloe SPF 30 Broad Spectrum; Malin and Goetz SPF 30 Face Moisturizer; Mango Butter Lipstick; Mango Butter Lipstick SPF 10; Maple Treatment Hand Cream SPF 20; Maracuja Miracle Foundation 12-Hour Foundation Broad Spectrum SPF 15 Sunscreen Beige; Maracuja Miracle Foundation 12-Hour Foundation Broad Spectrum SPF 15 Sunscreen Deep; Maracuja Miracle Foundation 12-Hour Foundation Broad Spectrum SPF 15 Sunscreen Fair; Maracuja Miracle Foundation 12-Hour Foundation Broad Spectrum SPF 15 Sunscreen Ivory; Maracuja Miracle Foundation 12-Hour Foundation Broad Spectrum SPF 15 Sunscreen Light; Maracuja Miracle Foundation 12-Hour Foundation Broad Spectrum SPF 15 Sunscreen Light-Medium; Maracuja Miracle Foundation 12-Hour Foundation Broad Spectrum SPF 15 Sunscreen Medium; Maracuja Miracle Foundation 12-Hour Foundation Broad Spectrum SPF 15 Sunscreen Medium-Tan; Maracuja Miracle Foundation 12-Hour Foundation Broad Spectrum SPF 15 Sunscreen Tan; Maracuja Miracle Foundation 12-Hour Foundation Broad Spectrum SPF 15 Sunscreen Warm Beige; Mario Badescu Aloe SPF; Mario Badescu Collagen SPF 15; Mario Badescu SPF 17; Mario Badescu SPF 30; Mario Badescu Skin Care Oil Free Moisturizer Broad Spectrum SPF 30 Sunscreen; Mark Glossworks Lip Gloss; Mark Totally Balmed; Mark. Get Defensive SPF 15 Eye; Mary Kay Day Solution SPF 15; Mary Kay Foundation Primer; Mary Kay Foundation Primer SPF 15; Mary Kay SPF 30 Sunscreen; Mary Kay Suncare Sunscreen Broad Spectrum SPF 50; Mary Kay Suncare Sunscreen SPF 30; Mary Kay TimeWise Age Fighting Moisturizer SPF 30; Mary Kay TimeWise Body Hand and Decolette Cream SPF 15; Mary Kay TimeWise Day Solution SPF 35; Mary Kay TimeWise Repair Volu-Firm Day Cream Broad Spectrum SPF 30; Mary Kay TimeWise Repair Volu-Firm Set; Mary Kay TimeWise Repair VoluFirm Day Cream SPF 30; Mary Kay Timewise Day Solution With Sunscreen SPF 15; Matte Moisturizer SPF 15; Matte and Clear Matifying Protector SPF 25; Mattifying Broad Spectrum SPF 15 Jafra; Mattifying Day Moisture Broad Spectrum SPF 15 Jafra; Max Block Maz Block SPF 30 Sport Sunscreen; Max Block Maz Block SPF 30 Sunscreen; Max Block Maz Block SPF 50 Kids Sunscreen; Max Block Maz Block SPF 50 Sunscreen; Max Sheer All Day Moisture Defense; Max Sheer All Day Moisture Defense Lotion; Mdsolarsciences Daily Anti Aging Moisturizer SPF 30; Me Day S3 SPF 25; Me Day T3 SPF 25; Meaningful Beauty Cindy Crawford Antioxidant SPF 20 UVA/UVB; Meaningful Beauty Cindy Crawford Environmental Protecting Moisturizer Broad Spectrum SPF 30 Sunscreen; Meaningful Beauty Cindy Crawford Maintenance 1 Daily Moisture SPF 8; Meaningful Beauty Cindy Crawford Skin Brightening Decollete and Neck Treatment SPF 15; Meaningful Beauty Cindy Crawford Skin Brightening Décolleté and Neck Treatment SPF 15; Mederma; MediSpa Sunblock sunblock; Meijer; Meijer Baby SPF 50; Meijer Elements 7-in-1 Anti-Aging Vitamin; Meijer Elements Advanced Firming and Anti-Wrinkle; Meijer Elements Daily Facial Moisturizer; Meijer Elements Long-Lasting Oil-Free; Meijer Family Sport 30; Meijer Kids Tear Free SPF 50; Meijer Oil Free 30; Meijer Oil Free Faces SPF 30; Meijer Oil Free SPF 15; Meijer Oil Free SPF 30; Meijer SPF 15; Meijer SPF 30; Meijer SPF 70; Meijer SPF 8; Meijer Sheer Moisturing SPF 30; Meijer Sheer SPF 15; Meijer Sheer SPF 30; Meijer Sheer SPF 55; Meijer Sport SPF 30; Meijer Sport SPF 50; Mens Maca Root Energising Face Protector SPF15; Mentholatum Natural Ice Extreme SPF-30 Lipbalm; Mentholatum Natural Ice Sport SPF 30; Merino Lip SPF 30; Merle Norman Dual Spectrum SPF 30; Merle Norman Preventage Firming Defense Normal/Oily Broad Spectrum SPF 15; Mesoestetic Moisturizing Sun Protection Broad Spectrum for Normal and Dry Skins; Mesoestetic Sun Protection SPF 25; Mesoestetic Sun Protection SPF 30; Mesoestetic Sun Protection SPF 50; Miami Beach SPF 50 Kids C/S Sunscreen; Milani Prime Protect SPF 30 Face Primer; Mineral Radiance Energizing Day BS SPF 15; Mineralium Hdra Source Moisturizing Protector SPF 25; Mint Condition Lip Shield SPF 30 Supergoop; Mint Fusion Lip Balm SPF 30 Supergoop; Miracle Worker SPF 55; Missha All Around Safe Block Essence Sun Milk 40ml; Missha All Around Safe Block Essence Sun Milk 70ml; Mk Men Advanced Facial Hydrator Sunscreen SPF 30; Mkmen Moisturizer Sunscreen SPF 25; Mkrs Broad Spectrum Spf50; Moderate Protection Sun SPF 15; Moisture Boost Daily Restoring Complex Broad Spectrum SPF 30; Moisture Compound SPF 30; Moisture Oil-free SPF 30; Moisture Rescue SPF 15; Moisture Restore Day Oil Free Protective Lotion SPF 15 (normal To Dry Skin); Moisture Rich Sunless Tanning SPF 20; Moisture Sun Protector; Moisture Therapy Lip Balm SPF 25; Moisturising Sun Protection Spf50; Moisturizer Maple Day Cream SPF 15; Moisturizer SPF 15; Moisturizing Antioxidant Day CRème SPF 20; Moisturizing Day Cream SPF 15; Moisturizing Day Lotion SPF 15; Moisturizing Day with Sunscreen and Dead Sea Mineral Broad Spectrum SPF 15; Moisturizing Face Shield; Moisturizing Facial Sunscreen; Moisturizing Lip BalmSPF30; Moisturizing Lip Gloss Brillant A Levres Hydratant; Moisturizing Lotion SPF 15; Moisturizing Protector SPF 30; Moisturizing Sunscreen Cream; Moisturizing Sunscreen Lotion; Moisturizing Sunscreen Lotion Sun Bum Broad Spectrum SPF 15; Moisturizing Sunscreen Lotion Sun Bum Broad Spectrum SPF 30; Moisturizing Sunscreen Lotion Sun Bum Broad Spectrum SPF 50; Moisturizing Tint SPF 30; Moisuture Replenishing Broad Spectrum SPf 15 Jafra; Morinda TruAge Therapy Element Shield SPF 20; Moroccan oil Sun Oil; Moroccanoil; Moroccanoil Sun Oil; Mousse Exquise Auto-bronzante 15 SPF; Mousse Exquise Auto-bronzante Embellissante SPF 15; Mucus D; Multi Active Hand Protector SPF 15; Multi Effect Day Cream SPF 25; Multi-Active Day Early Wrinkle Correcting SPF 15; Multi-Active Jour SPF 20 Broad Spectrum Sunscreen; Multi-action Cream SPF 30; Multi-regenerant Jour Fluide Lift Anti-rides Toutes Peaux SPF 15; Multiceutical Compound Oil Free Day Creme Sunscreen SPF 20; Multivitamin Bodyblock SPF 20; Mv Body Defense SPF 20; Myung Han Miindo Make Up Base; NARS SMOOTH and PROTECT PRIMER; NIVEA A Kiss of Smoothness Hydrating Lip Care; NIVEA Men Replenishing Lip Balm; NO-AD 15 Sunscreen; NO-AD 30 Sunscreen; NO-AD 45 Sunscreen; NO-AD 60 Sunscreen; NO-AD 85 Sunscreen; NO-AD Kids 50 Sunscreen; NO-AD Kids SPF50 Continuous Mist Sunscreen; NO-AD SPF45 Continuous Mist Sunscreen; NO-AD Splash 30 Sunscreen; NO-AD Sport 50 Sunscreen; NO-AD Sport SPF30 Continuous Mist Sunscreen; NO-AD SunCare Ltn SPF 50; NOURISHING hydrator; NUANCE Salma Hayek Renewed Radiance Moisturizing Day Cream Broad Spectrum SPF 30 Sunscreen; Naked Glow; Nanocare Moisturizing Sunscreen SPF 50; Nars Laguna Body Tint; Nars Pro-prime Light Optimizing Primer; Nars Pro-prime Light Optimizing Primer SPF 15; Nars Pro-prime Multi-protect Primer; Nars Radiance Primer; Native Tan SPF 20; Native Tan SPF 30; Native Tan SPF 40; Native Tan SPF 50; Natural Sun AQ Body and Family Mild Sun Milk; Natural Sun AQ Total Anti-aging Essence Sun; Natural Sun Eco Aqua Sunscreen Gel 40 SPF; Natural Sun Eco Light Sun Cream SPF 50+ Pa+++; Natural Sun Eco Mild Milk Spf40; Natural Sun Eco Sebum Control Moisture Sun Spf40; Natural Sun Eco Super Perfect SPF 50; Naturally Beaming; Neck + Chest Perfector; Nelly de Vuyst SPF 30 Broad Spectrum Sunscreen; NeoStrata Enlighten Skin Brightener SPF 25; NeoStrata Sheer Hydration SPF 35; NeoStrata Skin Active Matrix Support SPF 30; Neostrata Protective Lotion Broad Spectrum Uva/uvb Protection SPF 50+; Neostrata Sunshield Spray SPF 30; Neostrata Ultra-light Sun Lotion Broad Spectrum Uva/uvb Protection SPF 50+; Neova Day Therapy SPF 30; Neurogena Healthy Defense Moisturizer Sunscreen Broad Spectrum SPF50; Neutrogena Age Shield Anti Oxidant Face Sunscreen Broad Spectrum SPF70; Neutrogena Age Shield Face Oil Free Sunscreen Broad Spectrum SPF110; Neutrogena Age Shield Face SPF 110; Neutrogena Age Shield Face Sunscreen Broad Spectrum SPF70; Neutrogena Ageless Essentials Continuous Hydration Daily Moisturizer SPF25; Neutrogena Ageless Intensive Anti-Wrinkle Instant Radiance Daily Moisturizer SPF25; Neutrogena Ageless Intensives Anti Wrinkle Deep Wrinkle Daily Moisturizer Sunscreen Broad Spectrum SPF20; Neutrogena Ageless Intensives Tone Correcting Daily Moisturizer Broad Spectrum SPF30; Neutrogena Ageless Restoratives Anti-Oxidant Daily Moisturizer SPF 20 Helioplex; Neutrogena Anti-Wrinkle Deep Wrinkle Daily Moisturizer SPF 20 helioplex; Neutrogena Beach Defense Sunscreen Broad Spectrum SPF50 Plus; Neutrogena Beach Defense Water Plus Sun Protection Sunscreen Broad Spectrum SPF30; Neutrogena Beach Defense Water Plus Sun Protection Sunscreen Broad Spectrum SPF70; Neutrogena Clear Face; Neutrogena Clear Face Break Out Free Sunscreen Broad Spectrum SPF30; Neutrogena Clear Face Break Out Free Sunscreen Broad Spectrum SPF55; Neutrogena Clear Face Break-Out Free Sunscreen SPF 30 Helioplex; Neutrogena Clear Face Break-Out Free Sunscreen SPF 55 Helioplex; Neutrogena Clinical Lifting Wrinkle Treatment System; Neutrogena Colour Boosting Sunscreen SPF 30; Neutrogena Complete Acne Therapy Solution; Neutrogena CoolDry Sport Sunscreen Broad Spectrum SPF 50; Neutrogena CoolDry Sport Sunscreen Broad Spectrum SPF30; Neutrogena CoolDry Sport Sunscreen Broad Spectrum SPF70; Neutrogena CoolDry Sport Sunscreen SPF 50 with Micromesh; Neutrogena CoolDry Sport with Micromesh Face Oil free Sunscreen Broad Spectrum SPF 70; Neutrogena CoolDry Sport with Micromesh Sunscreen Broad Spectrum SPF 30; Neutrogena CoolDry Sport with Micromesh Sunscreen Broad Spectrum SPF 50; Neutrogena CoolDry Sport with Micromesh Sunscreen Broad Spectrum SPF30; Neutrogena CoolDry Sport with Micromesh Sunscreen Broad Spectrum SPF50 Plus; Neutrogena CoolDry Sport with Micromesh Sunscreen Broad Spectrum SPF70; Neutrogena Day Activating SPF 30; Neutrogena Deep Moisture Day with Sunscreen Broad Spectrum SPF20; Neutrogena Fresh Cooling Body Mist Sunscreen SPF 60; Neutrogena Fresh Cooling Sunscreen Body Mist Broad Spectrum SPF45; Neutrogena Fresh Cooling Sunscreen Body Mist Broad Spectrum SPF70 Plus; Neutrogena Healthy Defense Daily Moisturizer SPF 50 with Helioplex; Neutrogena Healthy Defense Daily Moisturizer Sunscreen Broad Spectrum SPF30; Neutrogena Healthy Defense Daily Moisturizer Sunscreen Broad Spectrum SPF50; Neutrogena Healthy Defense Moisturizer SPF 50; Neutrogena Healthy Skin Anti Wrinkle Broad Spectrum SPF15; Neutrogena Healthy Skin Anti Wrinkle with sunscreen Broad Spectrum SPF15; Neutrogena Healthy Skin Anti-Wrinkle System; Neutrogena Healthy Skin Anti-wrinkle Cream SPF 15; Neutrogena Healthy Skin Compact Makeup SPF 55 Buff 30; Neutrogena Healthy Skin Compact Makeup SPF 55 Classic Ivory 10; Neutrogena Healthy Skin Compact Makeup SPF 55 Natural Beige 60; Neutrogena Healthy Skin Compact Makeup SPF 55 Warm Beige 90; Neutrogena Healthy Skin Compact Makeup SPF Nude 40; Neutrogena Healthy Skin Compact Makeup SPF55 Fresh Beige 70; Neutrogena Healthy Skin Compact Makeup SPF55 Natural Ivory 20; Neutrogena Healthy Skin Compact Makeup SPF55 Soft Beige 50; Neutrogena Healthy Skin Compact Makeup with sunscreen broad spectrum SPF 55 Buff 30; Neutrogena Healthy Skin Compact Makeup with sunscreen broad spectrum SPF 55 Classic Ivory 10; Neutrogena Healthy Skin Compact Makeup with sunscreen broad spectrum SPF 55 Natural Beige 60; Neutrogena Healthy Skin Compact Makeup with sunscreen broad spectrum SPF 55 Warm Beige 90; Neutrogena Healthy Skin Compact Makeup with sunscreen broad spectrum SPF Nude 40; Neutrogena Healthy Skin Compact Makeup with sunscreen broad spectrum SPF55 Fresh Beige 70; Neutrogena Healthy Skin Compact Makeup with sunscreen broad spectrum SPF55 Natural Ivory 20; Neutrogena Healthy Skin Compact Makeup with sunscreen broad spectrum SPF55 Soft Beige 50; Neutrogena Healthy Skin Face Broad Spectrum SPF15; Neutrogena Healthy Skin Face Lotion SPF 15; Neutrogena Healthy Skin Face Sunscreen Broad Spectrum SPF15; Neutrogena Healthy Skin Firming Sunscreen Broad Spectrum SPF15; Neutrogena Healthy Skin Firms and Lifts SPF15; Neutrogena Healthy Skin Primer Broad Spectrum SPF15; Neutrogena Healthy Skin Radiance Boosts Radiance SPF15; Neutrogena Healthy Skin Radiance Sunscreen Broad Spectrum SPF15; Neutrogena Hydro Boost Water Sunscreen Broad Spectrum SPF 15; Neutrogena HydroBoost Water Gel Sunscreen Broad Spectrum SPF 30; Neutrogena HydroBoost Water Gel Sunscreen Broad Spectrum SPF 50; Neutrogena Illuminating Whip Moisturizer; Neutrogena Men Active protect Face SPF 50 Plus; Neutrogena Men Age Fighter Face Broad Spectrum SPF15; Neutrogena Men Sensitive Skin Oil Free Moisture Sunscreen Broad Spectrum SPF30; Neutrogena Men Sensitive Skin Oil-free Moisture; Neutrogena Men Triple Protect Face Broad Spectrum SPF20; Neutrogena Moisture Oil-free; Neutrogena Moisture Oil-free SPF 15; Neutrogena Oil Free Moisture Broad Spectrum SPF15; Neutrogena Oil-Free Moisture Sunscreen Broad Spectrum SPF 35; Neutrogena Pore Refining Cream SPF 15; Neutrogena Rapid Tone Repair Moisturizer Sunscreen Broad Spectrum SPF30; Neutrogena Rapid Tone Repair Sunscreen SPF30; Neutrogena Rapid Wrinkle Repair Moisturizer SPF 30; Neutrogena Rapid Wrinkle Repair Moisturizer Sunscreen Broad Spectrum SPF30; Neutrogena SPF 15; Neutrogena SPF 30; Neutrogena SPF 30 Spray Healthy Defense; Neutrogena SPF 30 Stick; Neutrogena SPF 45; Neutrogena SPF 45 Healthy Defense; Neutrogena Spectrum + Advanced Moisture Body Lotion; Neutrogena Spectrum + Advanced Moisture Sunscreen Lotion SPF 100; Neutrogena Spectrum + Face Advanced Moisture Sunscreen Lotion SPF 100; Neutrogena Spectrum Plus Advanced Sunscreen Broad Spectrum SPF100 Plus; Neutrogena Spectrum Plus Face Advanced Oil Free Sunscreen Broad Spectrum SPF100 Plus; Neutrogena Spectrum plus Advanced Sunblock SPF 100 plus helioplex 360; Neutrogena Spectrum+ Advanced Moisture Sunscreen Lotion SPF 70; Neutrogena Spectrum+ Advanced Moisture Sunscreen Spray SPF 100; Neutrogena Sport Face Oil Free Sunscreen Broad Spectrum SPF70 Plus; Neutrogena Sport Face Sunblock SPF70plus; Neutrogena Triple Age Repair Moisturizer Broad Spectrum SPF25; Neutrogena Ultimate Sport Sunblock SPF 100 Plus; Neutrogena Ultimate Sport Sunblock SPF 30 Helioplex; Neutrogena Ultimate Sport Sunblock SPF 70 Plus; Neutrogena Ultimate Sport Sunblock SPF70 Plus; Neutrogena Ultimate Sport Sunscreen Broad Spectrum SPF100 Plus; Neutrogena Ultimate Sport Sunscreen Broad Spectrum SPF30; Neutrogena Ultimate Sport Sunscreen Broad Spectrum SPF70 Plus; Neutrogena Ultra Gentle Soothing SPF15; Neutrogena Ultra Gentle Soothing Sunscreen Broad Spectrum SPF15; Neutrogena Ultra Sheer Body Mist Sunscreen Broad Spectrum SPF 100 Plus; Neutrogena Ultra Sheer Body Mist Sunscreen Broad Spectrum SPF 30; Neutrogena Ultra Sheer Body Mist Sunscreen Broad Spectrum SPF 45; Neutrogena Ultra Sheer Body Mist Sunscreen Broad Spectrum SPF 70; Neutrogena Ultra Sheer Body Mist Sunscreen Broad Spectrum SPF30; Neutrogena Ultra Sheer Body Mist Sunscreen SPF 30; Neutrogena Ultra Sheer Body Mist Sunscreen SPF 45; Neutrogena Ultra Sheer Body Mist Sunscreen SPF 60; Neutrogena Ultra Sheer Dry Touch SPF55; Neutrogena Ultra Sheer Dry Touch Sunblock SPF 30 Helioplex; Neutrogena Ultra Sheer Dry Touch Sunblock SPF 45 with helioplex; Neutrogena Ultra Sheer Dry Touch Sunblock SPF70; Neutrogena Ultra Sheer Dry Touch Sunscreen Broad Spectrum SPF 30; Neutrogena Ultra Sheer Dry Touch Sunscreen Broad Spectrum SPF100 Plus; Neutrogena Ultra Sheer Dry Touch Sunscreen Broad Spectrum SPF45; Neutrogena Ultra Sheer Dry Touch Sunscreen Broad Spectrum SPF55; Neutrogena Ultra Sheer Dry Touch Sunscreen Broad Spectrum SPF70; Neutrogena Ultra Sheer Dry Touch Sunscreen Broad Spectrum SPF85 Plus; Neutrogena Ultra Sheer Dry-touch Sunscreen SPF 70; Neutrogena Ultra Sheer Dry-touch Sunscreen SPF 85; Neutrogena Ultra Sheer Face Sunscreen SPF 45; Neutrogena Ultra Sheer Face Sunscreen SPF 60; Neutrogena Ultra Sheer Face and Body Sunscreen Broad Spectrum SPF70; Neutrogena Ultra Sheer SPF 30; Neutrogena Ultra Sheer SPF 45; Neutrogena Ultra Sheer SPF 55 and SPF 70 Suncare Kit; Neutrogena Ultra Sheer Sunscreen Broad Spectrum SPF 70; Neutrogena Ultra Sheer Water Light; Neutrogena Ultra sheer Face and Body Sunscreen Broad Spectrum SPF70; Neutrogena Visibly Even Daily Moisturizer Sunscreen Broad Spectrum SPF30; Neutrogena Visibly Even Moisturizer SPF 15; Neutrogena Visibly Younger Hand Cream SPF 20; Neutrogena Wet Guard Kids Beach and Pool; Neutrogena Wet Skin Kids Applies To Wet Or Dry Skin Sunscreen Stick; Neutrogena Wet Skin Kids Beach & Pool Sunscreen Lotion; Neutrogena Wet Skin Kids Beach and Pool Sunblock SPF 70; Neutrogena Wet Skin Kids Beach and Pool Sunblock SPF 70plus helioplex; Neutrogena Wet Skin Kids Beach and Pool Sunscreen Broad Spectrum SPF45 Plus; Neutrogena Wet Skin Kids Beach and Pool Sunscreen Broad Spectrum SPF70 Plus; Neutrogena Wet Skin Kids SPF 45 Plus; Neutrogena Wet Skin Kids Sunscreen Broad Spectrum SPF70 Plus; Neutrogena Wet Skin Swim Humidity Sweat Sunscreen Broad Spectrum SFP45 Plus; Neutrogena Wet Skin Swim Humidity Sweat Sunscreen Broad Spectrum SPF30; Neutrogena Wet Skin Swim Humidity Sweat Sunscreen Broad Spectrum SPF50; Neutrogena Wet Skin Swim Humidity Sweat Sunscreen Broad Spectrum SPF85 Plus; Neutrogena Wet Skin Swim-Humidity-Sweat Sunblock SPF 50 Helioplex; Neutrogena Wet Skin Swim-Humidity-Sweat Sunblock SPF 85Plus Helioplex; Neutrogena Wet Skin Swim-Humidity-Sweat Sunscreen SPF 30 Helioplex; New Hawaiian Tropic Sensitive Skin Lotion Sunscreen; New Lip Protector Sunscreen SPF15; NexGen Sunscreen Broad Spectrum SPF 36 Doc Martins; Nia 24 SPF 30; Nicole Miller Daytime Delivery Moisturizing Creme; Nicole Miller Daytime Delivery Moisturizing Lotion; Niseko Sunscreen SPF 25; Nivea A Kiss of Berry Swirl Vitamin Enriched Lip Care; Nivea A Kiss of Cherry Fruity Lip Care; Nivea A Kiss of Flavor Strawberry Tinted Lip Care; Nivea A Kiss of Natural Volume Glossy Lip Care; Nivea A Kiss of Protection Lip Care; Nivea A Kiss of Recovery Medicated Lip Care; Nivea A Kiss of Shimmer Radiant Lip Care; Nivea A Kiss of Shine Natural Look Glossy Lip Care; Nivea A Kiss of Smoothness Lip Care; Nivea A Kiss of Strawberry Fruity Lip Care; Nivea A Kiss of Vitamin Swirl Antioxidant Enriched Lip Care; Nivea For Men Age Defying Face Moisturizer; Nivea For Men Protective; Nivea For Men Q10 Energy; Nivea Mattifying Day Cream; Nivea Men Energy Revitalizing; Nivea Men Protect & Care Face Lotion; Nivea Men Protective; Nivea Men Sensitive Protective; Nivea Moisturizing Day Cream; Nivea Nourishing Day Cream; Nivea Q10 Plus Anti-wrinkle Day Cream; Nivea Q10 Plus Anti-wrinkle Day Cream SPF 30; Nivea Recovery Medicated Lip Care; Nivea Smoothness Lip Care; Nivea Soothing Care; Nivea Sun; Nivea Visage Dnage Firm & Glow Day Care Cream; Nivea Visage Light Moisturizing Day Care; Nivea Visage Q10 Advanced Wrinkle Reducer Lotion; Nivea Visage Q10 Plus Anti-wrinkle; Nivea a Kiss of recovery; Nivea body Natural Tone; No 7 Beautiful Skin Day Cream Normal/oily SPF 15; No 7 Men Protect & Perfect Intense Moisturiser SPF 15; No 7 Protect & Perfect Intense Day Cream SPF 15; No 7 Restore & Renew Day Cream SPF 15; No BS SPF20 Moisturizer; No-AD Face SPF 30 6oz; No-AD SPF 45 Sun Protection; No-AD Spf30 Ltn 16oz; No-Ad Sun Care Broad Spectrum SPF 30 Sunscreen; No-Ad Sun Care Broad Spectrum SPF 50 Baby Sunscreen; No-Ad Sun Care Broad Spectrum SPF 50 Kids; No-Ad Sun Care Broad Spectrum SPF 60 Sunscreen; No. 7 Protect & Perfect Day Cream; No7 Advanced Hydration Day Cream Sunscreen SPF 12; No7 Advanced Hydration Day Sunscreen SPF 12; No7 Beautiful Skin Day Cream Dry/very Dry SPF 15; No7 Beautiful Skin Day Cream Normal Dry SPF 15; No7 Beautiful Skin Day Cream Normal/dry SPF 15; No7 Beautiful Skin Day Dry Very Dry Sunscreen Broad Spectrum SPF 15; No7 Beautiful Skin Day Normal Dry Sunscreen Broad Spectrum SPF 15; No7 Beautiful Skin Day Normal Oily Sunscreen Broad Spectrum SPF 15; No7 Beautiful Skin Oil Free Skin Protector All Skin Types SPF 25; No7 Beautiful Skin day Normal Dry Sunscreen Broad Spectrum SPF 15; No7 City Light Tinted Moisturiser Sunscreen Broad Spectrum SPF 15 Fair; No7 City Light Tinted Moisturiser Sunscreen Broad Spectrum SPF 15 Medium; No7 City Light Tinted Moisturiser Sunscreen Broad Spectrum SPF 15 Medium Dark; No7 Dual Action Tinted Moisturiser Fair; No7 Dual Action Tinted Moisturiser Medium; No7 Early Defence Day Cream; No7 Early Defence Day Cream SPF 30; No7 Lift & Luminate Day Cream SPF 15; No7 Lift & Luminate Fermete Et Eclat; No7 Lift & Luminate Triple Action Day Cream SPF 30; No7 Lift and Luminate Day Cream SPF 15; No7 Lift and Luminate Day Sunscreen Broad Spectrum SPF 15; No7 Lift and Luminate Triple Action Day Cream SPF 30; No7 Lift and Luminite Day Cream SPF 15; No7 Lifting & Firming Day Cream SPF 8; No7 Lifting and Firming Day Sunscreen SPF 8; No7 Lifting and Firming Skincare System Day Sunscreen SPF 8; No7 Men Protect and Perfect Intense Advanced Day Moisturiser SPF 30; No7 Men Protect and Perfect Intense Moisturiser; No7 Protect & Perfect  Hand Cream SPF 15; No7 Protect & Perfect Intense Advanced Anti-ageing Day Cream; No7 Protect and Perfect Day Cream SPF 15; No7 Protect and Perfect Day Cream Sunscreen SPF 15; No7 Protect and Perfect Day Sunscreen Broad Spectrum SPF 15; No7 Protect and Perfect Day Sunscreen SPF 15; No7 Protect and Perfect Hand Cream Sunscreen Broad Spectrum SPF 15; No7 Protect and Perfect Hand Cream Sunscreen SPF 15; No7 Protect and Perfect Hand Sunscreen SPF 15; No7 Protect and Perfect Intense Advanced Day Cream SPF 30; No7 Protect and Perfect Intense Day Cream SPF 15; No7 Protect and Perfect Intense Day Cream Sunscreen Broad Spectrum SPF 15; No7 Protect and Perfect Skincare System Day Sunscreen SPF 15; No7 Rebalancing Day Fluid Sunscreen SPF 15; No7 Restore and Renew Day Cream SPF 15; No7 Restore and Renew Day Sunscreen; No7 Time Resisting Day Cream SPF 12; No7 Time Resisting Day Cream Sunscreen SPF 12; No7 Time Resisting Day Sunscreen SPF 12; Normal Facial Moisturizer Broad Spectrum SPF 15 Lotion; Norwegian Formula Ageless Hand Cream SPF 30; NouriFusion; Nourifusion Sunscreen Broad Spectrum SPF 15 Moisturizing Lotion With Conditioning Antioxidant Vitamins A, C & E Normal To Dry; Nourifusion Sunscreen Broad Spectrum SPF 15 Moisturizing Lotion With Conditioning Antioxidant Vitamins A, C & E Normal To Oily; Novadiol Uv SPF 15; Nu Skin Ageloc Radiant Day SPF 22; Nu Skin Sunright 50 Broad Spectrum SPF 50; Nu Skin Tri-Phasic White Day Milk Broad Spectrum SPF 15; Nu Skin Tri-Phasic White System; Nu Skin ageLOC Me; Nu Skin ageLOC Me Day S1 Broad Spectrum SPF 25; Nu Skin ageLOC Me Day S3 Broad Spectrum SPF 25; Nu Skin ageLOC Me Day S9 Broad Spectrum SPF 25; Nu Skin ageLOC Me Day T1 Broad Spectrum SPF 25; Nu Skin ageLOC Me Day T3 Broad Spectrum SPF 25; Nu Skin ageLOC Me Day T9 Broad Spectrum SPF 25; Nu Skin ageLOC Radiant Day Broad Spectrum SPF 22; NuGLOW DAYTIME THERAPY With SPF 15; Nutra Suncare Ecran Solaire Nutra SPF 30; Nutrisun Lait Solaire Insectifuge SPF 16; Nutrisun Lait Solaire Insectifuge SPF 30; Nutrisun Lotion Solaire Insectifuge SPF 8; Nyakio Hydrating Face; OP Protect and Nourish Babies and Sensitive SPF 50; OP Protect and Nourish Kids SPF 50; OP Protect and Nourish SPF 30 Sunscreen; OP Protect and Nourish SPF 50 Sunscreen; OP Protect and Renew Body SPF 45; OP Protect and Renew Face SPF 35; OP SPF 70 Anti Aging Sunscreen; OP Sport Sunscreen spf30; OP spf15 Anti Aging Sunscreen; OP spf45 Lip Potion Clear Zinc; OP spf50 and Sport Sunscreen; ORASER DAILY HAND REPAIR Broad-Spectrum SPF 20 Sunscreen; Oasis Daily Defense; Obagi; Obagi 360; Obagi 360 HydraFactor Moisturizing Broad Spectrum SPF 30 SUNSCREEN; Occulus Soloxide 30 Broad Spectrum SPF 30; Ocean Potion 50 Instant Dry Kid Spotstick; Ocean Potion Cool Dry Touch Sport 30 Sunscreen; Ocean Potion Gentle and Sensitive 50 Sunscreen; Ocean Potion H2o Sport SPF 50 Sunscreen Lotion; Ocean Potion Instant Dry 30 Mist Sport Sunscreen; Ocean Potion Instant Dry 30 Mist Water Sport Sunscreen; Ocean Potion Instant Dry 50 Dab-On Spotstick; Ocean Potion Instant Dry 50 Mist Kids Sunscreen; Ocean Potion Instant Dry 50 Mist Sunscreen; Ocean Potion Instant Dry 70 Mist Sunscreen; Ocean Potion Instant Dry SPF 30 Mist H20 Sport Sunscreen; Ocean Potion Instant Dry SPF 30 Mist Sport; Ocean Potion Instant Dry SPF 50 Mist Kids; Ocean Potion Instant Dry SPF 50+ Mist; Ocean Potion Intell Mist 50 Kids Sunscreen; Ocean Potion Kids Sunscreen Lotion SPF 50; Ocean Potion Moisturizing Lip Potion 45; Ocean Potion Quick Dry 15 Sunscreen; Ocean Potion Quick Dry 30 Sunscreen; Ocean Potion Quick Dry 50 Sunscreen; Ocean Potion Quick Dry Kids 50 Sunscreen; Ocean Potion Quick Dry SPF 70 Sunscreen; Ocean Potion Sport Xtreme Sunscreen Lotion SPF 30; Ocean Potion Sport Xtreme Sunscreen Lotion SPF 50; Ocean Potion Sunscreen Lotion SPF 15; Ocean Potion Sunscreen Lotion SPF 30; Ocean Potion Sunscreen SPF 50+ Lotion; Ocean Potion Water Sport SPF50 Sunscreen; Oclipse Daily Sheer Broad-spectrum Sunscreen SPF 50; Oclipse Smart Tone Broad-spectrum Sunscreen SPF 50; Oclipse Sun Spray SPF 50 Broad Spectrum Sunscreen SPF 50  for Face + Body; Oclipse Sun Spray SPF 50 Broad Spectrum Sunscreen SPF 50 for Face + Body; Octinoxate,octisalate,avobenzone,octocrylene,ensulizole,titanium Dioxide; Octisalate, Avobenzone, Homosalate, Octocrylene SPF30; Oil Clearing Matte Moisturizer; Oil Free Faces 30 SPF Sunscreen; Oil Free Matte SPF 30; Oil Free Moisture; Oil Free Moisturizer; Oil-Control Day SPF 15; Oil-Free Daily Hydration SPF 15; Oil-Free Facial Sunscreen Spectrum SPF 50 JAFRA; Oil-control Day Lotion SPF 15; Oil-free Sunscreen SPF 30; Oil-free Tinted Nourisher; Olay Age Defying Anti Wrinkle Day Lotion With SPF 15; Olay Age Defying Anti-Wrinkle Broad Spectrum SPF 15; Olay Age Defying Anti-Wrinkle Day Broad Spectrum SPF 15; Olay Age Defying Anti-wrinkle - Daily SPF 15 Lotion; Olay Age Defying Anti-wrinkle Day Lotion With SPF 15; Olay Age Defying Sensitive Skin Broad Spectrum SPF 15; Olay Age Defying Sensitive Skin Day Lotion With Sunscreen; Olay Anti-wrinkle Nutrients Daily SPF 15 Lotion; Olay Body Age Transform Intensive Moisturizer Plus Uv Defense; Olay Complete Ageless Skin Renewing Uv Lotion; Olay Complete All Day Moisture Broad Spectrum SPF 15 Normal; Olay Complete All Day Moisture Cream; Olay Complete All Day Moisture Cream Normal; Olay Complete All Day Moisture Creme SPF 15 Uva/uvb Sensitive; Olay Complete All Day Moisture Normal Broad Spectrum SPF 15; Olay Complete All Day Moisture With Sunscreen Broad Spectrum SPF 30 Normal; Olay Complete All Day Moisturizer; Olay Complete All Day Moisturizer Broad Spectrum SPF 15; Olay Complete All Day Moisturizer Broad Spectrum SPF 15 Combination/Oily; Olay Complete All Day Moisturizer Normal Broad Spectrum SPF 15; Olay Complete All Day Moisturizer Sensitive Skin; Olay Complete All Day Moisturizer With Uv Protection SPF 15 Combination/ Oily; Olay Complete All Day Moisturizer With Uv Protection SPF 15 Normal; Olay Complete Normal UV365 Daily Moisture with sunscreen Broad Spectrum SPF 15; Olay Complete Spf30 Defense All Day Moisturizer; Olay Complete Tinted Moisturizer Broad Spectrum SPF 15 Fair to Light; Olay Complete Tinted Moisturizer Broad Spectrum SPF 15 Light to Medium; Olay Complete Tinted Moisturizer With Sunscreen Broad Spectrum SPF 15; Olay Complete Touch Of Sun; Olay Complete UV 365 Daily Moisturizer Combination Oily Broad Spectrum SPF 15; Olay Complete UV 365 Daily Moisturizer Normal Broad Spectrum SPF 15; Olay Complete Uv365* Daily Moisturizing Cream With Sunscreen Broad Spectrum SPF 15 Normal; Olay Complete Uv365* Daily Moisturizing Lotion With Sunscreen Broad Spectrum SPF 15 Combination/oily; Olay Complete Uv365* Daily Moisturizing Lotion With Sunscreen Broad Spectrum SPF 15 Normal; Olay Definity Refining Lotion With Uv Protection; Olay Fresh Effects BB Broad Spectrum SPF 15 Fair to Light; Olay Fresh Effects BB Broad Spectrum SPF 15 Light to Medium; Olay Fresh Effects Bb Cream Skin Perfecting Tinted Moisturizing Cream; Olay Fresh Effects SPF 15 Moisturizer; Olay Fresh Effects Soak Up the Sun Protection Broadspectrum SPF 15; Olay Luminous Brightening & Protecting Lotion With Sunscreen; Olay Luminous Brightening & Protecting Lotion With Sunscreen Broad Spectrum SPF 30; Olay Luminous Brightening and Protecting with Sunscreen Advanced Tone Perfecting Moisturize Broad Spectrum SPF 15 Fragrance-Free; Olay Luminous Brightening and Protecting with Sunscreen Broad Spectrum SPF 30; Olay Luminous Whip; Olay Luminous Whip Active Moisturizer Broad Spectrum SPF 25; Olay Luminous Whip Active Moisturizer Broad Spectrum SPF 30 Sales Samples; Olay Moisturizer Broadspectrum SPF 15; Olay Moisturizing Lotion With SPF 30; Olay Professional Pro-X Age Protection Lotion With SPF 30; Olay Professional Pro-X Clear Uv Moisturizer SPF 15; Olay Professional Pro-X Even Skin Tone Sheer Uv Protective Lotion; Olay Professional ProX Age Repair Broad Spectrum SPF 30; Olay Professional ProX Anti-Oxidant Sheer Daily Moisturizer Broad Spectrum SPF 35; Olay Professional ProX Tone Correcting Protocol; Olay Regenerist DNA Superstructure Broad Spectrum SPF 30; Olay Regenerist Day and Night Trial Pack; Olay Regenerist Enhancing Lotion With Uv Protection; Olay Regenerist Enhancing Uv Lotion With SPF 15; Olay Regenerist Luminous Brightening and Protecting Moisturizer Broadspectrum SPF 15; Olay Regenerist Micro Sculpting Moisturizer Broad Spectrum SPF 30; Olay Regenerist Micro-sculpting Cream With Sunscreen Broad Spectrum SPF 30; Olay Regenerist Regenerating Advanced Anti-Aging Moisturize Broad Spectrum SPF 50; Olay Regenerist Regenerating Broad Spectrum SPF 50; Olay Regenerist Regenerating Moisture Broad Spectrum SPF 15; Olay Regenerist Regenerating Moisturizer Broad Spectrum SPF 15; Olay Regenerist Superstructure Cream; Olay Regenerist Touch Of Foundation Uv Defense Moisturizer; Olay Regenerist Touch Of Sun Enhancing Lotion With Uv Protection; Olay Regenerist Whip; Olay Regenerist Whip Active Moisturizer Broad Spectrum SPF 25 Sunscreen; Olay Regenerist Whip Active Moisturizer Broad Spectrum SPF 30 Sunscreen (Sales Samples - SPF NOT DETERMINED); Olay Total Effects 7 In One Anti-aging Moisturizer With Sunscreen Broad Spectrum SPF 30 Fragrance Free; Olay Total Effects 7 In One Tone Correcting Moisturizer With Sunscreen; Olay Total Effects 7-IN-1 Anti-aging Moisturizer With Sunscreen Broad Spectrum SPF 30; Olay Total Effects 7-IN-1 Anti-aging Uv Moisturizer; Olay Total Effects 7-IN-1 Anti-aging Uv Moisturizer Fragrance-free; Olay Total Effects 7-IN-1 Anti-aging Uv Moisturizer Plus Touch Of Foundation; Olay Total Effects 7-IN-1 Moisturizer + Treatment Duo; Olay Total Effects 7in1 Anti-aging Moisturizer With Sunscreen Broad Spectrum SPF 15; Olay Total Effects 7in1 Featherweight Moisturizer With Sunscreen; Olay Total Effects Anti-Aging Moisturizer Broad Spectrum SPF 15 Fragrance Free; Olay Total Effects Anti-Aging Moisturizer Broad Spectrum SPF 30; Olay Total Effects CC Tone Correcting Broad Spectrum SPF 15 Fair to Light; Olay Total Effects CC Tone Correcting Broad Spectrum SPF 15 Light to Medium; Olay Total Effects CC Tone Correcting Broad Spectrum SPF 15 Medium to Deep; Olay Total Effects Feather Weight Moisturizer with Sunscreen Broadspectrum SPF 15; Olay Total Effects Feather Weight Moisturizer with Sunscreen Broadspectrum SPF 15 Fragrance Free; Olay Total Effects Moisturizer Plus Serum Duo Broad Spectrum SPF 15; Olay Total Effects Moisturizer Plus Serum Duo Fragrance Free Broad Spectrum SPF 15; Olay Total Effects Top Sellers Trial Pack; Olay Total Effects Uv Protection Enriched Moisturizer; Olay Total Effects Uv Protection Hand Moisture Treatment; Olay Total Effects Whip; Olay Total Effects Whip Active Moisturizer Broad Spectrum SPF 25 Sunscreen; Olay Total Effects Whip Active Moisturizer Broad Spectrum SPF 30 Sunscreen Sales Samples; Olay Uv Moisturizing Cream; Old Spice Daily Moisturizer with Sunscreen Broadspectrum SPF 15; Ole Henriksen Truth Revealed Brightening Broad Spectrum SPF 15 Moisturizer; Ombrelle - Cold Weather Defence SPF 25; Ombrelle - Lotion Enfants SPF 30; Ombrelle - Lotion Extreme SPF 30; Ombrelle - Lotion Spf30; Ombrelle Baume Pour Les Levres SPF 30; Ombrelle Cream SPF 60; Ombrelle Creme Ecran SPF 60; Ombrelle Creme Spf45 Kids; Ombrelle Kids SPF 60; Ombrelle L'oreal Suncare Research Kids (SPF 30); Ombrelle L'oreal Suncare Research Kids (SPF 45); Ombrelle Lotion Extreme SPF 30; Ombrelle Lotion SPF 15; Ombrelle Lotion SPF 30; Ombrelle Lotion SPF 30 Pour Enfants; Ombrelle Sport Gel; Ombrelle Sport Lotion SPF 30; Ombrelle Sport Lotion SPF 45; Ombrelle Sport Spray; Ombrelle Sport Spray Spf15; Ombrelle Spray SPF 15; Ombrelle Spray SPF 15 Liq; Ombrelle Stick SPF 60; Ombrelle Vapo Sport SPF 15; Ombrelle-15 Lot; Ombrelle-lotion SPF 15; Ombrelle-lotion SPF 30; Ombrelle-lotion SPF 45; Ombrelle-lotion Spf15; Optimum Bronzage Ensoleillement Fort; Original Lotion With Sunscreen; Origins A PERFECT WORLD AGE DEFENSE TINTED MOISTURIZER SPF 15; Origins A Perfect World SPF 15 Age-defense Tinted Moisturizer With White Tea; Origins A Perfect World SPF 25 Age-defense Moisturizer With White Tea; Origins A Perfect World SPF 40 Age-defense Moisturizer With White Tea; Origins Plantscription SPF 25 Anti-aging Cream; Origins Plantscription SPF 25 Anti-aging Oil-free Cream; Origins Plantscription SPF 25 Power Anti-aging Cream; Origins Plantscription SPF 25 Power Anti-aging Oil-free Cream; Origins Vitazing SPF 15 Energy-boosting Moisturizer; Outback 2 in 1 Protection; Outback Series 2-in-1 Sunscreen; Oxy Daily Moisturizer With SPF 15; PETER ISLAND Continuous Sunscreen Sport 50 BROAD SPECTRUM SPF 50 Water Resistant; PROVENCE CALENDULA AQUA SUN 35g; Palmer's Cocoa Butter Formula Body Lotion SPF 15; Panama Jack BOAD SPECTRUM SPF 30; Panama Jack BOAD SPECTRUM SPF 50; Panama Jack BROAD SPECTRUM SPF 50; Panama Jack Broad Spectrum SPF 15 Sport; Panama Jack Broad Spectrum SPF 30; Panama Jack Broad Spectrum SPF 50; Panama Jack Broad Spectrum SPF 70; Panama Jack SPF 30; Panama Jack SPF 50; Panama Jack SPF 85 Sport Dry Touch Sunscreen; Parrot Head Fins Up 50 Mist Sunscreen; Parrot Head Fins Up Sport 15; Parrot Head Fins Up Sport 15 Mist Sunscreen; Parrot Head Fins Up Sport 30; Parrot Head Fins Up Sport 30 Mist; Parrot Head Floridays 30; Parrot Head Floridays 50; Parrot Head Floridays Face 50; Parrot Head Parakeet Kids 50; Parrot Head Parakeet Kids 50 Mist Sunscreen; Parsol Suncare SPF 29; Patricia Wexler Intensive 3-in-1 Day Cream with Sunscreen Broad Spectrum SPF 28; Patricia Wexler Skin Brightening Daily Moisturizer with Sunscreen Broad Spectrum SPF 28; Patricia Wexler Universal Anti-Aging Moisturizer with Sunscreen Broad Spectrum SPF 28; Patricks Sunscreen; Paula's Choice Pc4men Daytime Protect Broad Spectrum SPF 30; Pc SPF Fps 15 Sunscreen Continuous Spray; Pc SPF Fps 15 Sunscreen Lotion; Pc SPF Fps 30 Sport Sunscreen Continuous Spray; Pc SPF Fps 30 Sport Sunscreen Lotion; Pc SPF Fps 30 Sunscreen Continuous Spray; Pc SPF Fps 30 Sunscreen Lotion; Pc SPF Fps 50 Sunscreen Continuous Spray; Pc SPF Fps 50 Sunscreen Lotion; Pc SPF Fps 50+ Kids Sunscreen Continuous Spray; Pc SPF Fps 50+ Kids Sunscreen Lotion; Pc SPF Fps 50+ Sunscreen Lotion; Pear SPF 30 Broad Spectrum; Pearlixime ILLUMINATING PERFECTING Sunscreen Broad Spectrum SPF 15; Pep Start Hydrorush Moisturizer Broad Spectrum SPF 20; Peppermint SPF 15 Broad Spectrum Lip Balm; Perfect Day 2 in 1 Everywear SPF 50 and Mint Condition Lip Shield SPF 30 Supergoop; Perfect Legs Skin Protector SPF 30; Perfect Truth Cc CRème; Perfect Truth Cc Eye CRème; Perfect Truth cc Broad Spectrum SPF 30 Ole Henriksen; Perfecting Day Cream Broad Spectrum SPF 30 Pa +++; Performance Moisturizer SPF 15; Performance Sunscreen SPF 45 Cream; Peter Island Baby Sunscreen SPF 50; Peter Island Continous sunscreen SPF 30; Peter Island Continous sunscreen SPF 50; Peter Island Continous sunscreen kids SPF 50; Peter Island Continuous Sport Sunscreen SPF 50; Peter Island Kids Sunscreen SPF 65; Peter Island Sunscreen SPF 30; Peter Island Sunscreen SPF 50; Peter Island Sunscreen SPF 70; Peter Island SunscreenSPF 50 SPF 50; Peter Island Ultimate Sheer Dry Touch Sunscreen SPF 70; Pharmasave Sport Sunscreen Continuous Spray SPF Fps 30; Phelityl Day Lotion SPF 15; Phelityl Day SPF 15; Phenomen-A Jour; Photo Dynamic Therapy SPF 30; Photo-radiance Treatment Traitement Photo-éclat SPF/fps 15 Uva/uvb; Photoderm SPF/fps 40 Spray; Photoderm SPF/fps 50+ CRème; Photoderm SPF/fps 50+ Lait; Photoplex Plus Broad Spect.sunscr.lot SPF 15; Picture Perfect Day Daily Moisturizer; Pigmentclar Uv SPF 30; Pina Colada Body SPF 30 Broad Spectrum; Pineapple SPF 30 Broad Spectrum; Pixi Sun Serum SPF 30; Plantscription Anti Aging Oil Free Broad Spectrum SPF 25; Plantscription Anti-aging Broad Spectrum SPF 25; Polyphenol C15; Pomegranate SPF 15 Lip; Pond's Replenishing Moisturizer Lotion SPF 15; Ponds Clarant B3; Ponds Luminous Moisture Day SPF 15; Ponds Vao-B3; Positively Ageless Daily Moisturizer; Positively Ageless Sunscreen Lotion SPF 60 Face; Positively Ageless Sunscreen Lotion SPF 85 Face; Positively Ageless Sunscreen Spray SPF 45; Positively Radiant Daily Moisturizer SPF 15; Powder Foundation SPF 20; PowerPatch Dark Spot Protector; Prebel Nude Protect SPF 70 Sunscreen; Premier Value Daily Facial Moisturizer; Premier Value Illuminating Daily Moisturizer; Premium Sunscreen Broad Spectrum SPF 30; Prescriptives All You Need + Broad Spectrum Moisture Cream SPF 15; Prescriptives All You Need + Broad Spectrum Moisture Lotion SPF 15; Prescriptives All You Need + Continuous Action 24 Hour Moisture SPF 15 for Drier Skins; Prescriptives All You Need + Continuous Action 24 Hour Moisture SPF 15 for Normal Skins; Prescriptives All You Need + Continuous Action 24 Hour Moisture SPF 15 for Oilier Skins; Prescriptives Anti-age Advanced Protection Eye Cream SPF 25; Prescriptives Anti-age Advanced Protection Lotion SPF 25; Prescriptives Anti-age Advanced Protection Moisturizer SPF 25; Presidents Choice; Presun 30 Clear Gel Sunscreen; Presun 30 Cream Sunscreen; Presun 30 Cream Sunscreen for Kids; Presun 30 for Kids Cream Sunscreen; Presun Ultra 15 Cream; Presun Ultra 15 Gel; Presun Ultra 27 for Kids Spray; Presun Ultra 30 Cream; Presun Ultra 30 Gel; Presun Ultra 30 for Kids Cream; Prevage Anti Aging Moisture Broad Spectrum Sunscreen SPF 30; Prevage Anti Agining Triple Defense Shield Broad Spectrum Sunscreen SPF 50; Prevage Anti-aging Moisture Cream SPF 30; Prevage Anti-aging Moisture Lotion SPF 30; Prevage Anti-aging Triple Defense SPF 50 Sunscreen Sheer Lotion; Preventage Firming Defense CRème Normal/dry Broad Spectrum SPF 15; Preventage Firming Defense CRème Normal/oily Broad Spectrum SPF 15; Preventage Firming Defense Creme Normal/Dry Merle Norman; Preventage Firming Defense Normal/Oily Broad Spectrum SPF 15 Merle Norman; Preventage Hand Treatment Broad Spectrum SPF 15; Preventage Hand Treatment Broad Spectrum SPF 15 Merle Norman; Prime Protection SPF 15; Primer Broad Spectrum Sunscreen; Principal Secret Reclaim Revolutionary Anti-aging Day SPF 15; Pro Triple Protection Factor Face and Body Broad Spectrum SPF 30 Sunscreen; Pro Triple Protection Factor Lip Balm Broad Spectrum SPF 30 Sunscreen; Pro Vive SPF 30; Pro-Care; Pro-X By Olay Dermatological Anti-aging Age Protection Lotion Sunscreen Broad Spectrum SPF 30; Pro-derm 50; Pro-derm Creme De Jour Optimal; Pro-derm Fps 60 SPF; Proactiv MD Daily Oil Control SPF 30; Proactiv Solution Daily Protection Plus Sunscreen SPF 30; Professional-C Suncare Broad Spectrum SPF 30 Sunscreen; Protect The Truth SPF 50 Ole Henriksen; Protect and Prime Broad Spectrum SPF30; Protecting Body Oil SPF 15; Protecting Sun Care Lotion SPF 15; Protecting Sun Care Lotion SPF 8; Protection 50 Body; Protection 50 Sport; Protective Body Sunscreen; Protective Day; Protective Foundation Sunscreen SPF 15; Protective Gel-cream Body SPF 20; Protective Lotion SPF 15 Sunscreen; Protective Moisturizer Broad Spectrum SPF 30 Sunscreen; Protective Moisturizing Fluid Pour Homme - for Men; Protective Protectrice Sunscreen Spray Lotion Lotion écran Solaire En Vaporisateur SPF/fps 15; Protective Protectrice Sunscreen Spray Lotion Lotion écran Solaire En Vaporisateur SPF/fps 8; Protective Sport Sunscreen Ecran Solaire 30 SPF/fps; Protective Sunscreen SPF/fps 10 écran Solaire Protecteur Dry Oil/huile Sèche; Protector SPF 15 Jafra Sun; Protectyl Soleil Moisturizing Sunscreen Lotion Minimal Protection Spf10; Protectyl Soleil Moisturizing Sunscreen Lotion Moderate Protection Spf15; Protectyl Soleil Moisturizing Sunscreen Spray Moderate Protection Spf15; Protectyl Soleil Suntan Lotion Bronzing Effect Tanning SPF 4; Provence Calendula Aqua Sun Ge L; Provence Calendula Daily Sun Block; Provence Calendula Daily Sun Block Spf50 Plus; Provence Calendula Perfect Sun Block; Publix Baby SPF 50; Publix Kids; Publix Kids SPF 50; Publix SPF 30; Publix SPF 50; Publix Sport SPF 50; PureLight SPF50; Queens Rose Whole In One Sunblock; Quercetin & Oak Hydrating Antiageing Antiwrinkle Day Cream; Quick Dry Body Broad Spectrum SPF40 Sunscreen UVA-UVB Sunscreen with SolSci-X; Quick Dry SPF 30 Sheer Finish Spray; Quick Dry SPF 50 Sheer Finish Spray; Quick Fluid Week-end; Quick Wrinkle Repair Moisturizer Broad Spectrum SPF30; R.E.M. Day SPF 30; R.E.M. SPF 30; R.P. Sol; R2; R2 System; RAYDIANT by Australian Gold BROAD SPECTRUM SPF 50 Vitamin D; REDEFINE Regimen for the Appearance of Lines, Pores and Loss of Firmness Travel Size; REPASKIN FACIAL SUNSCREEN BROAD-SPECTRUM SPF 30 50ml; REVERSE Lightening Regimen for the Appearance of Stubborn Dark Marks, Patches and Age Spots; REVERSE Regimen for the Appearance of Skin Dullness, Discoloration and Uneven Skin Tone; REVITALIZING MOISTURIZING Sunscreen SPF 20; RITUALS Active Firming Day sunscreen broad spectrum SPF 15 dry skin; RITUALS Essential Anti-Aging Day SPF 15 sunscreen broad spectrum normal to dry skin; RITUALS SMOOTH OPERATOR caring lip balm broad spectrum SPF15 sunscreen 4.8g; RITUALS broad spectrum SPF 15 sunscreen Sensitive Skin Day; RODAN - FIELDS ESSENTIALS Body Sunscreen BROAD SPECTRUM SPF 30; Radiant C Body Lotion SPF 15; Radiant C UVA/UVB Sunscreen; Radiant Day SPF 22; Radiant Skin Moisturizer SPF 15 Lotion; Rapid Tone Repair Moisturizer; Rapid Wrinkle Repair Moisturizer; Ray Defense Borad Spectrum SPF 30 sunscreen Biolements; Ray Defense Broad Spectrum SPF 30; Ray Defense SPF 30 Sunscreen; Raydiant By Australian Gold Vitamin D Broad Spectrum spf 30; Raydiant By Australian Gold Vitamin D Broad Spectrum spf 50; Raydiant by Australian Gold Broad Spectrum SPF 30 Vitamin D; Re Nutriv Radiant Uv Base Broad Spectrum SPF 50; Re9 Advanced Deluxe Try Me Set; Re9 Advanced Extra Moisture Restorative Cream With SPF 20; Re9 Advanced Restorative Cream With SPF 20; Re9 Advanced Set - All Skin Types; Re9 Advanced Set - Extra Moisture; Re9 Advanced for Men Facial Moisturizer With SPF 20; Re9 Advanced for Men Set; Re9 Advanced for Men Travel Set; ReVive Even Skin Tone Broad Spectrum SPF 30 Sunscreen; ReVive Fermitif Neck Renewal SPF 15; ReVive Sensitif Oil Free Broad Spectrum SPF 15 Sunscreen; ReVive Sensitif Renewal Daily Cellular Protection Broad Spectrum SPF 30 Sunscreen; Recapture 360 Day plus IR Defense; Recapture Day Plus IR Defense; Reclarx Moisture Shield; Rectifiance Intense - Creme Retexturante Anti-age-SPF 15; Rectifiance Intense-fluide Retexturant Anti-age-spf15; Rederm Moisturizing Lotion SPF 30; Redermic [c] Uv - SPF 25; Reef Babies SPF 50; Reef Babies SPF 50 Oxybenzone Free; Reef Kids SPF 30; Reef Kids SPF 30 Oxybenzone Free; Reef Kids SPF 40; Reef Safe SPF 20; Reef Safe SPF 30; Reef Safe SPF 30 Oxybenzone Free; Reef Safe SPF 40; Reef Safe SPF 50; Reef Safe SPF 50 Oxybenzone Free; Refreshing Sunscreen Spray Vaporisateur D'écran Solaire Rafraîchissant; Regeneration Daily Protection Creme Broad Spectrum SPF 50; Regeneration Wrinkle Control Cream SPF 15; Rejuva Moisturizing Day Cream SPF 15; Rejuva Moisturizing Day Cream SPF 30; Rejuvenating Face Moisturizer SPF 30; Renergie Lift Multi-action SPF 15 Firming Moisturizing Cream All Skin Types; Renergie Lift Multi-action SPF 15 Firming Moisturizing Rich Cream; Renew Face Dry Touch Sun Protection Broad Spectrum Uva/uvb Sunscreen Lotion SPF 30; Renewal 7-in-1 Anti-Aging Vitamin; Renewal Anti-Wrinkle; Renewed Hope In A Jar SPF 30; Renewing Antioxidant Treatment SPF 6 GNLD International; Renewing Treatment; Renove ROYAL PERFECT HAND Broad Spectrum SPF 15; Renove UV Shield Broad Spectrum SPF 50; Repair and Protect Moisturizer Broad Spectrum SPF30; Replenishing Day Lotion Broad Spectrum SPF 20; Rescue Squad Broad Spectrum SPF 25; Resilience Lift Firming Sculpting Face and Neck Broad Spectrum SPF 15; Resilience Lift Firming Sculpting Face and Neck Broad Spectrum SPF 15 Nml Combo; Resilience Lift Firming- Sculpting Face and Neck Broad Spectrum SPF 15 for Dry Skin; Resist Daily Mattifying Fluid Broad Spectrum SPF 50; Resist Lip Gloss Broad Spectrum SPF 40; Restorative Day Moisture SPF 15; Retinol Day SPF 30 CVS; Retinol Hand SPF 15 Anti-age Care; Retisol-A; Retroactive + Day Youth Extending Cream SPF/fps 25 Uva/uvb; Revelage Arbonne Brightening Moisture Face Cream With SPF 30; Revelage Brightening Moisture Face Cream With SPF 30; Revelage Brightening Moisture Hand Cream With SPF 30; Reversa CRème Radiance Fps 30; Reversa Creme Contour Des Yeux Fps30; Reversa Creme Fps30; Reversa Sunscreen Cream SPF 30; Reversa Sunscreen Cream SPF 50+; Reversa Uv Creme Contour Des Yeux; Reversa Uv Creme Visage Et Cou Fps 15; Reversa Uv Fluide Hydratant Non Gras Fps 15; Revitalift Anti-wrinkle + Firming Day Cream; Revitalift Bright Reveal Brightening Daily Lotion; Revitalift SPF 30; Revitalift Triple Power Lzr Intensive Anti-aging Lotion; Revitalizing Hand Lotion With SPF 15; Revitalizing Moisturizer With SPF 15; Revive Moisturizing Renewal; Revlon Kiss Balm; Revlon Kiss Balm SPF 20; Revlon Moisturous Lip Color SPF 17; Rich Girl Hand; Rimmel BB Beauty Balm Light; Rimmel BB Beauty Balm Medium; Rimmel BB Beauty Balm Medium Dark; Rimmel BB Cream 9-IN-1 Skin Perfecting Super Makeup Light Medium; Rimmel BB Cream 9-in-1 Skin Perfecting Super Makeup Light; Rimmel BB Cream 9-in-1 Skin Perfecting Super Makeup Medium; Rimmel BB Cream Beauty Balm Radiance SPF 20 Light; Rimmel BB Cream Beauty Balm Radiance SPF 20 Medium; Rimmel Insta Flawless Perfecting Radiant Skin Tint Light Medium; Rimmel Insta Flawless Perfecting Radiant Skin Tint Medium Dark; Risarium Black Rice Extreme Age-defying Line Reducing Moisture Face Cream SPF 15; Rite Aid Baby Sunscreen; Rite Aid Daily Moisturizer SPF 15; Rite Aid Essential Defense SPF 45; Rite Aid Kids Sunscreen SPF 50; Rite Aid Oil Free Faces Sunscreen SPF 30; Rite Aid RENEWAL SPF 30; Rite Aid RENEWAL SPF 50; Rite Aid RENEWAL Sport SPF 30; Rite Aid RENEWAL essential defense SPF 50; Rite Aid RENEWAL kids SPF 50; Rite Aid RENEWAL oil free faces; Rite Aid RENEWALSPF 50 SPF 50; Rite Aid SPF 30; Rite Aid SPF 50; Rite Aid Sport; Rite Aid Sport SPF 30 8 oz; Rite Aid Sport SPF 50; Rite Aid Sport Sunscreen; Rite Aid Sport SunscreenSPF 30 SPF 30; Rite Aid Sport SunscreenSPF 50 SPF 50; Rite Aid Sunscreen; Rite Aid Sunscreen SPF 30; Rite Aid Sunscreen SPF 50; Rite Aid Ultimate Sheer; RoC Brilliance Day Rejuvenating SPF20; RoC Multi Correxion; RoC Multi Correxion 5 in 1 Chest, Neck and Face Sunscreen Broad Spectrum SPF 30; RoC Multi Correxion 5 in 1 Daily Moisturizer Sunscreen Broad Spectrum SPF30; RoC Multi Correxion 5 in 1 Moisturizer Sunscreen Broad Spectrum SPF30; RoC Multi correxion Lift Anti Gravity Day Moisturizer SPF 30; RoC Multi correxion Lift Anti Gravity Day Moisturizer Sunscreen Broad Spectrum SPF30; RoC Retinol Correxion Deep Wrinkle Daily Moisturizer SPF30; RoC Retinol Correxion Deep Wrinkle Daily Moisturizer Sunscreen Broad Spectrum SPF30; Robanda Anti-Aging Hand; Roc Chronoblock; Roc Hydra+ Bio Active Anti-oxidant Bio-moisturizing Care SPF 30 Dry Skin; Roc Retin-OL+ Day SPF 30; Roc Retinol Actif Pur Day SPF 15; Roc Soleil Protexion Daily Anti-ageing Sunscreen; Roc Soya Unify SPF 15; Rocky Mountain Broad Spectrum SPF 30; Rocky Mountain KIDS Broad Spectrum SPF 30; Rodan & Fields Proactiv + Daily Protection Moisturizer Broad Spectrum SPF 15; Rodan & Fields Proactiv Solution: Daily Protection Plus Sunscreen SPF 15; Rodan and Fields ESSENTIALS Lip Shield Broad Spectrum SPF 25; Rodan and Fields Essentials UVA/UVB; Rodan and Fields REDEFINE Regimen for the Appearance of Lines, Pores and Loss of Firmness; Rodan and Fields Redefine AM SPF 30; Rodan and Fields Redefine Age Shield Hand Shield Balm SPF30; Rodan and Fields Reverse 4 Broad Spectrum SPF 50 Plus Sunscreen; Rodan+fields Essentials Body Sunscreen; Rodan+fields Essentials Lip Shield; Rodan+fields Redefine; Rodan+fields Redefine Age Shield Hand Balm; Rodan+fields Reverse; Rosa Graf Forty Plus Protect; Rosa Graf Suntime Special; Rosaliac Uv; Rosaliac Uv Legere; Rosaliac Uv Riche; Rosasol; Royal Jelly Kit Jafra; SARAH CHAPMAN London SKINESIS Dynamic Defence Anti-Ageing Day SPF 15; SARAH CHAPMAN London SKINESIS Dynamic Defence Concentrate Anti-Ageing Day Cream SPF 15; SENSE Daytime Protective Broad Spectrum SPF 15; SEPHORA Sunscreen Body Mist Broad Spectrum SPF 30; SISLEYA Global Anti-Age Hand care SPF 15; SLMD Moisturizer with SPF; SOL LEON Sunscreen SPF 15; SOL LEON Sunscreen SPF 30; SOTHYS PARIS Sunscreen Face and Body Broad Spectrum SPF 30 UVA/UVB; SPF 15; SPF 15 Body Sunscreen Spray; SPF 15 Broad Spectrum Lotion; SPF 15 Broad Spectrum Sunscreen Lotion; SPF 15 Fps; SPF 15 Lip Conditioner; SPF 15 Lotion; SPF 15 Performance Bodycare Sunscreen Spray; SPF 15 Self Tanner Lotion; SPF 15 Sheer Coverage Sunscreen Lotion - Australian Gold; SPF 15 Spray Gel Sunscreen With Bronzer - Australian Gold; SPF 15 Spray-ON Sunscreen; SPF 15 Sunscreen Continuous Spray; SPF 15 Sunscreen Continuous Spray - Australian Gold; SPF 15 Sunscreen Continuous Spray With Bronzer; SPF 15 Sunscreen Continuous Spray With Bronzer - Australian Gold; SPF 15 Sunscreen Lotion; SPF 15 Sunscreen Lotion - Australian Gold; SPF 15 for Men Maca Root Energetic Face Protector; SPF 20 Uva/uvb; SPF 25 Body Sunscreen Spray; SPF 25 Uva/uvb; SPF 30; SPF 30 Alcohol-free Spray Sunscreen; SPF 30 Alcohol-free Spray-ON Sunscreen; SPF 30 Anthelios XL Lotion; SPF 30 Body Sunscreen; SPF 30 Body Sunscreen Fragrance Free; SPF 30 Broad Spectrum Lotion; SPF 30 Clear Protect Continuous Spray; SPF 30 Dry Mist Lotion Continuous Spray; SPF 30 Face Sunscreen Lotion; SPF 30 Fps; SPF 30 Fps Sport Sunscreen Lotion; SPF 30 Fps Sunscreen Lotion; SPF 30 Hydrating Mist; SPF 30 Ideal Soleil Lip Protection Stick; SPF 30 Invisible Mist; SPF 30 Kids Alcohol-free Spray Sunscreen; SPF 30 Kids Alcohol-free Spray-ON Sunscreen; SPF 30 Kids Spray-ON Sunscreen; SPF 30 Mineral Sunscreen Face Neck; SPF 30 Oil Free Broad Spectrum Sunscreen Lotion; SPF 30 Performance Sunscreen Spray; SPF 30 Protection Primer; SPF 30 Sheer Coverage Sunscreen Lotion - Australian Gold; SPF 30 Sheer sunscreen face Ulta; SPF 30 Sport Broad Spectrum Sunscreen Lotion; SPF 30 Sport Clear Continuous Spray; SPF 30 Sport Continuous Spray Sunscreen; SPF 30 Sport Endurance; SPF 30 Sport Sunscreen CVS; SPF 30 Sport Sunscreen Stick; SPF 30 Spray Gel Sunscreen With Bronzer - Australian Gold; SPF 30 Spray-ON Alcohol-free Sunscreen; SPF 30 Sunscreen; SPF 30 Sunscreen Continuous Spray - Australian Gold; SPF 30 Sunscreen Continuous Spray With Bronzer - Australian Gold; SPF 30 Sunscreen Lotion; SPF 30 Sunscreen Skier's Defense; SPF 30 Sunscreen Tottle; SPF 30 Sunscreen Tottle w Carabiner; SPF 30 Ultra Light Advanced Weightless Body Lotion; SPF 30 Ultra Light Advanced Weightless Face Lotion; SPF 30 Ultra Sport Sunscreen Lotion; SPF 30 Ultra Sunscreen Continuous Spray; SPF 30 Ultra-lift; SPF 30 Uva/uvb Protection Lotion; SPF 30 Wrinkle Reducing Cream; SPF 30 tropical flavor sunscreen lip balm Ulta; SPF 30+ Spray-ON Sunscreen; SPF 30+ Sunscreen; SPF 32 Sunscreen Hawaiian; SPF 4 Spray Gel Sunscreen With Bronzer; SPF 45 Body and Scalp Sunscreen Continuous Spray; SPF 45 Clear; SPF 45 Clear Protect Continuous Spray; SPF 45 Cream; SPF 45 Sport Clear Continuous Spray; SPF 45 Sunscreen Lotion; SPF 50 Broad Spectrum Kids; SPF 50 Broad Spectrum Sunscreen Continuous Spray; SPF 50 Broad Spectrum Ultrathon; SPF 50 Face Sunscreen Bioelements; SPF 50 Fps; SPF 50 Funscreen Spray-ON Sunscreen for Kids; SPF 50 Invisible Mist; SPF 50 Kids Continuous Spray Sunscreen; SPF 50 Kids Sunscreen Lotion; SPF 50 Sunburn Protection Lotion; SPF 50 Sunscreen; SPF 50 Sunscreen Continuous Spray Lotion; SPF 50 Sunscreen Lotion; SPF 50 Sunscreen Spray; SPF 50 Uva/uvb; SPF 50 With Solar Smart; SPF 50+ Baby Broad Spectrum Sunscreen Lotion; SPF 50+ Broad Spectrum Sunscreen Lotion; SPF 50+ Broad Spectrum Sunscreen Mousse; SPF 50+ Continuous Spray Sunscreen; SPF 50+ Fps Ultra; SPF 50+ Fps Ultra Lotion; SPF 50+ Kids (80 Minutes) Water Resistant; SPF 50+ Kids Broad Spectrum Sunscreen Lotion; SPF 50+ Kids Lotion; SPF 50+ Kids Sunscreen Continuous Spray; SPF 50+ Kids Sunscreen Lotion; SPF 50+ Sport Broad Spectrum Sunscreen Continuous Spray; SPF 50+ Sport Broad Spectrum Sunscreen Lotion; SPF 50+ Sport Sunscreen Lotion; SPF 50+ Sunscreen Lotion; SPF 50+ Ultra Light Advanced Weightless Body Lotion; SPF 55 Sport Stick CVS; SPF 55 Sport Sunstick Well at Walgreens; SPF 60; SPF 60 Anthelios XL Lightweight Lotion; SPF 60 Anthelios XL Lotion; SPF 60 Clear; SPF 60 Clear Protect Continuous Spray; SPF 60 Dry Mist Lotion Continuous Spray; SPF 60 Face Sunscreen Lotion; SPF 60 Sport Clear Continuous Spray; SPF 60 Sport Endurance; SPF 60 Sport Sunscreen Continuous Spray; SPF 60 Sport Sunscreen Lotion; SPF 60 Sunscreen Stick; SPF 60 Ultra Light Advanced Lotion; SPF 60 Ultra Light Advanced Weightless Face Lotion; SPF 8 Sunscreen Continuous Spray With Bronzer; SPF 8 Sunscreen Lotion - Australian Gold; SPF Fps 100 Sun Protection Lotion; SPF Fps 30 Sport Sunscreen Continuous Spray; SPF Fps 30 Sun Protection Lotion; SPF Fps 40 Lotion; SPF Fps 40 Spray; SPF Fps 50 Baby Spray; SPF Fps 50 Kids Sunscreen; SPF Fps 60 Sun Protection Lotion; SPF Rx - Anti-Aging Sunscreen SPF 30; SPF Rx - SPF 15 Spearmint Lip Balm; SPF Rx - SPF 30 Mango Lip Balm; SPF Rx - Sport Sunscreen SPF 30; SPF-15 Sunscreen; SPF-60; SPF/fps 15; SPF/fps 30; SPF/fps 30 Broad Spectrum Alcohol Free Sunscreen; SPF/fps 30 Broad Spectrum Sunscreen Spray; SPF/fps 30 Kids; SPF/fps 30 Lipbalm; SPF/fps 30 Oil Free Sunscreen Lotion; SPF/fps 30 Sport Sunscreen Lotion; SPF/fps 30 Sunscreen Continuous Spray; SPF/fps 30 Sunscreen Lotion; SPF/fps 45; SPF/fps 50; SPF/fps 50 Broad Spectrum Alcohol Free Sunscreen; SPF/fps 50 Fragrance-free Spray Sunscreen; SPF/fps 50 Kids; SPF/fps 50 Sunscreen Continuous Spray; SPF/fps 50+ Sheer Sunscreen Lotion; SPF/fps 60; SPF/fps 60 Continuous Spray; SPF/fps 60 Sunscreen Lotion; SPF30 SUNSCREEN and SPF15 LIP BALM Combo; SPF30 Sunscreen; SRB 3 Lighting White Sun; SUNLEYA Age minimizing sun care SPF 15; SUNLEYA Age minimizing sun care SPF 50 plus; SUPER CREME SOLAIRE CORPS Body sun care SPF 15; Safe Sea SPF 40; Save Face AM Moisturizer Broad Spectrum SPF 35 Supergoop; Sayuki Anti-aging Daily Moisturizer SPF 30; Sayuki Broad Spectrum SPF 30 Anti-Aging Daily Moisturizer Sunscreen; Scape SPF 30 Athlete Sunblock; Scape SPF 30 Lip Balm; Scape SPF 50 Athlete Sunblock; Scape SPF 50 Moisturizing Face; Scar with SPF 30 Walgreens; Sea & Ski All Day 30; Sea & Ski SPF 15 Advanced Sunblock; Sea & Ski SPF 30 Advanced Sunblock; Sea & Ski SPF 30 Sport Sunblock; Sea Results Line Resolution Cream SPF 30; Sea Results Line Resolution Sea Results Line Resolution SPF30; Sea and Ski SPF 15 Sport Sunblock; Seaweed Mattifying Moisture Lotion SPF 15; Seaweed Moisturizer SPF15; Seaweed Oil-Control SPF 15; Seaweed Oil-control Lotion SPF 15; Sebamed SPF 25 Lip Defense; Sebamed Sun Cream SPF 16; Sebamed Sun Cream SPF 20; Sebamed Sun Cream SPF 8; Sebamed Sun Lotion SPF 16; Sebamed Sun Lotion SPF 20; Sebamed Sun Lotion SPF 8; Secret Key Thanakha Aqua SunLotion SPF35 PA PLUS PLUS PLUS; Securewhite Cream SPF 30; Sei Bella Daytime Delivery; Sei Bella Tinted BB Moisturizing Creme Broadspectrum SPF 20 Beige 300 N; Sei Bella Tinted BB Moisturizing Creme Broadspectrum SPF 20 Beige 320 W; Sei Bella Tinted BB Moisturizing Creme Broadspectrum SPF 20 Beige 340 N; Sei Bella Tinted BB Moisturizing Creme Broadspectrum SPF 20 Blush 140 C; Sei Bella Tinted BB Moisturizing Creme Broadspectrum SPF 20 Blush 160 N; Sei Bella Tinted BB Moisturizing Creme Broadspectrum SPF 20 Blush 200 W; Sei Bella Tinted BB Moisturizing Creme Broadspectrum SPF 20 Blush 220 C; Sei Bella Tinted BB Moisturizing Creme Broadspectrum SPF 20 Deep 560 C; Sei Bella Tinted BB Moisturizing Creme Broadspectrum SPF 20 Tan 440 C; Sei Bella Tinted BB Moisturizing Creme Broadspectrum SPF 20 Tan 500 W; Select Brand Baby Sunscreen; Select Brand Sport Sunscreen SPF 30; Select Brand Sunscreen; Sense Daytime Protective Emulsion Sunscreen SPF 15; Sensitive Facial Moisturizer Broad Spectrum SPF 15 Lotion; Sephora 8hr Mattifying Moisturizer Sunscreen Broad Spectrum SPF 20; Serious Skincare Daytech 30; Serious Skincare Serious C3 Plasma Bio Technology C Vitamin C Ester Protective Daytime Broad Spectrum Moisturizer SPF 30; Serious Skincare Serious-C3 Plasma Tm Bio Technology C Vitamin C Ester Protective Daytime Broad Spectrum Moisturizer SPF 30; Session Savers Sunscreen Broad Spectrum SPF 30 Water Resistant; Shea Butter Protective SPF 20; Sheer Coverage Continuous Spray Sunscreen SPF 50; Sheer Coverage Faces Lotion SPF 45 Australian Gold; Sheer Coverage Faces Sunscreen Lotion SPF 45 With Bronzer; Sheer Cream Lipstick Broad Spectrum SPF 15; Sheer Daily Moisturizer; Sheer Lotion SPF 45 Bare Skin Feel; Sheer Lotion SPF 50; Sheer Lotion SPF 60 Bare Skin Feel; Sheer Lustre Day Moisture Broad Spectrum SPF 15 Pa+++; Sheer SPF 100 Well at Walgreens; Sheer SPF 30 Oil Free Well at Walgreens; Sheer SPF 30 Well at Walgreens; Sheer SPF 55 Well At Walgreens; Sheer Sunscreen SPF 30 CVS Health; Sheer Touch Sunscreen; Sheer Touch Toucher Soyeux Oil-free Sunscreen Écran Solaire Sans Huile; Sheer Touch Toucher Soyeux Oil-free Sunscreen écran Solaire Sans Huile SPF/fps 50+; Sheer Touch/toucher Soyeux Oil-free Sunscreen/écran Solaire Sans Huile SPF/fps 15 Ultra Radiance/ultra-radieux; Sheer Touch/toucher Soyeux Oil-free Sunscreen/écran Solaire Sans Huile SPF/fps 30 Ultra Radiance/ultra-radieux; Sheer Touch/toucher Soyeux Oil-free Sunscreen/écran Solaire Sans Huile SPF/fps 45 Ultra Radiance/ultra-radieux; Sheer Touch/toucher Soyeux Oil-free Sunscreen/écran Solaire Sans Huile SPF/fps 60 Ultra Radiance/ultra-radieux; Sheltered Broad Spectrum SPF 55 Sunscreen; Shine On Lip Sunscreen Broad Spectrum SPF 50; Ships Ahoy Seashore Sunscreen Broad Spectrum SPF 30 Jafra; Shiseido Benefiance Nutriperfect Day; Shiseido Benefiance Wrinkleresist24 Day; Shiseido Benefiance Wrinkleresist24 Protective Hand Revitalizer; Shiseido Future Solution LX Total Protective; Shiseido Future Solution LX Total Protective E; Shiseido Future Solution Lx Daytime Protective; Shiseido Future Solution Lx Total Protective; Shiseido Future Solution Lx Total Protective Cream; Shiseido Future Solution Lx Total Protective Emulsion; Shiseido Glow Enhancing Primer; Shiseido Ibuki Protective Moisturizer; Shiseido Refreshing Sun Protection; Shiseido The Skincare Day Moisture Protection; Shiseido The Skincare Day Moisture Protection Enriched; Shiseido Ultimate Sun Protection; Shiseido White Lucent All Day Brightener; Shiseido White Lucent All Day Brightener N; Shiseido White Lucent Brightening Protective Moisturizer N; Shiseido White Lucent Brightening Protective W; Shiseido White Lucent Protective Moisturizer SPF 16; ShopKo Absolute Daily Moisturizer SPF15 Sensitive Skin; ShopKo Absolute Daily Moisturizing Broad Spectrum SPF15 Sunscreen; ShopKo Illuminating Daily Moisturizer Broad Spectrum SPF15 Sunscreen; Shopko Anti-Wrinkle and Firming Moisturizer Day Broad Spectrum SPF18; Shopko Long Lasting Oil Free Moisturizer Broad Spectrum SPF15; Signature Sunscreen Broad Spectrum SPF 25 Malibu Heat; Silk Hydration Weightless Clear Sunscreen Spray SPF 30; Silk Hydration Weightless Face; Silkies Enriche Ageless Moisturizer; Silky CRème Soyeuse SPF/fps 2; Silky Sheer Bb Face Lotion SPF 50; Silky and Clear Sunscreen; Simple Light Moisturizer SPF 15; Simple Protecting Light Moisturizer Broad Spectrum SPF 15 Sunscreen; Simple Protecting Light Moisturizer SPF 15; Simple Vital Vitamin Day Cream SPF 15; Simple Vital Vitamin Day SPF 15; Skin Activator Day SPF 15; Skin Activator Lip Refiner SPF 15; Skin Activator Sunscreen Day Lotion Broad Spectrum SPF 15; Skin Active Intensive Day; Skin Balancing Makeup Broad Spectrum SPF 20 Jafra; Skin Balancing Ultra Sheer Daily Defence SPF 30 Paulas Choice; Skin Balancing Ultra-sheer Daily Defense Broad Spectrum SPF 30; Skin Best Cream SPF 15 All Skin Types; Skin Best Cream SPF 15 Dry Skin; Skin Care Prescription; Skin Crave Broad Spectrum spf30; Skin Crave spf15 lip balm; Skin Effects by Dr. Jeffrey Dover Glycolic Day; Skin Firm Lipoamino hydrator SPF 15 Molton Brown; Skin Pharmacy Advanced Sun Therapy Broad Spectrum SPF 30 Sun; Skin Renew Even Tone; Skin So Soft DD Body; Skin So Soft Dd Firm & Restore Body Cream; Skin So Soft Firm and Restore Age Defying Corrective Neck and Chest; Skin So Soft Firm and Restore Neck and Chest Treatment; Skin Strong - Skin Equipment SPF 30 Sunscreen; Skin Strong - Skin Equipment SPF 55 Sunscreen; Skin Vivo Uniformity SPF 15; SkinCeuticals Sport UV Defense Sunscreen Broad Spectrum SPF 50; SkinDog; SkinPharmacy Advanced Anti-Aging Therapy Glycolic Day Moisturizer SPF 30; SkinPharmacy Advanced Anti-Aging Therapy Retinol Day Moisturizer SPF 30; SkinPharmacy Advanced Sun Therapy Broad Spectrum SPF 50 Face; SkinProtect SPF 50 SHEER ROLLER SUNSCREEN; SkinTx Sunscreen SPF 30; Skincare LdeL Retinol Day Broad Spectrum SPF 20; Skinfood Miracle Food 10 Solu Tion Sun Essence; Skinprint Ultra Sheer SPF 20; Slow âge Daily Cream; Slow âge Daily Lotion; Smashbox Photo Finish Foundation Primer SPF 20; Smooth Mint Lip Balm; Snik - Lot; Snik Lotion SPF 15; Snik Lotion SPF 38; Snik Sun Milk - Crm; Snow Skin Sunscreen Lip Balm; Soft Focus City Suncreen Serum Broad Spectrum SPF 30 Supergoop; Softlips Flavour Fusions Lip Moisturizer; Softlips Ultra 30; Soin Auto-bronzant Visage Bronzage Intense SPF 15; Soin Auto-bronzant Visage Bronzage Naturel SPF 15; Soin Bonne Mine Express SPF 12 - Azzaro Chrome; Soin Hydratant Anti-rides Fps 15; Soin Solaire Autobronzant SPF 8 - Crm; Soin Solaire Visage Creme Multi-protection Fps 30; Soin Ultime Jeunesse Mains CRème Fps 30 Pure; Soins Soleil CRème Teintée Anti-rides Age-defying Tinted Cream Faible/low Protection Uva/uvb Spf10; Soins Soleil-CRème Visage Et Corps/ Face and Body Cream Faible/low Protection Uva/uvb Spf10; SolMate BROAD SPECTRUM SPF 15; SolMate BROAD SPECTRUM SPF 30; SolMate BROAD SPECTRUM SPF 50; SolMate BROAD SPECTRUM SPF 8; SolMate Baby Broad Spectrum SPF50; SolMate Broad Spectrum SPF 15; SolMate Broad Spectrum SPF 30; SolMate Broad Spectrum SPF 50; SolMate Continuous Sunscreen Broad Spectrum SPF 15; SolMate Kids BROAD SPECTRUM SPF 50; SolMate broad spectrum spf 8; SolScents Deep Love broad spectrum spf 30; SolScents flower blast broad spectrum spf 50; Solaire Peau Parfaite Sunscreen SPF 30; Solar Defense Body; Solar Defense Booster SPF50; Solar Moisturizer SPF 30; Solar Protection Fluid Broad Spectrum SPF 50; Solar Screen SPF 12; Solar Sense Clear Sun Protection; Solar Sense Clear Zinc Body SPF 50; Solar Sense Clear Zinc Sport Body SPF 50; Solarguard MD; Solbar Avo SPF35; Solbar Fifty SPF50; Solbar Thirty SPF 30; Soleil Ambre SPF 5; Soleil Broad Spectrum SPF-30; Soleil Broad Spectrum SPF-50; Soleil Bronzant SPF 12; Soleil Expert Sun Care SPF 15 Face and Body Lotion; Soleil Expert Sun Care SPF 15 Water-light Spray; Soleil Expert Sun Care SPF 25 Face and Body Lotion; Soleil Expert Sun Care SPF 30 Face Creme; Soleil Filtrant SPF 25; Soleil Forte Multi; Soleil Protexion Invisible Touch SPF 30; Soleil Protexion Invisible Touch SPF 45; Soleil Protexion Sun Lip Stick Velvet Moisture SPF 20; Soleil Protexion Sun Lip Stick Velvet Moisture SPF 30; Soleil Protexion Velvet Moisture Quenching Cream Combination Skin; Soleil Protexion Velvet Moisture Quenching Cream Normal Skin; Soleil Toujours Broad Spectrum SPF 50 Set Protect Micro Mist; Soleil Toujours SPF 50 Sheer Sunscreen Mist; Solmate BROAD SPECTRUM SPF 50 Sport Sunscreen; Solmate Broad Spectrum SPF 30; Solmate Broad Spectrum SPF 4; Solmate Broad Spectrum SPF 50 C/S Sunscreen; Solutions A.M. Ageless Results Day Cream; Solutions A.M. Complete Balance Day Cream CRème De Jour; Solutions A.M. Total Radiance; Solutions A.M. Total Radiance Day Lotion; Solutions Ageless Results Day; Solutions Am Total Radiance Day Cream; Solutions Neck and Chest Perfector; Soothing Care; Soothing Day Cream SPF 15; Soothing Day SPF 15; Spa Pharma Anti-Aging Acocado Cream SPF 25 Listing; Spa Pharma BB Cream SPF 50; Spa Pharma Day Defense Moisturizing Cream; Spa Pharma Moisturizer Cream SPF 50; Spa Pharma Multi vitamin Cream SPF 25; Spa Pharma Olive Oil Moisturizing Cream; Spa Pharma Regenerating Pomegranate Cream; Spa Skilha Helioprot Ab SPF 40; Spa Sun - Sun Protection SPF 30 - Face and Body; Spearmint Lip Balm Broad Spectrum Vertra; Spearmint SPF 15 Lip; Specific Beauty Daily Hydrating SPF 30; Specter Capital Tropical Blend Broad Spectrum SPF 30 Sunscreen; Splash Kids 45 SPF/fps Sunscreen Lotion écran Solaire; Sport 30 SPF Fps Continuous Spray; Sport 50; Sport Lotion SPF 30; Sport Performance Powder-dri Sunscreen Lotion Ecran Solaire SPF/fps 30; Sport Performance Spray Sunscreen / écran Solaire En Vaporisateur SPF/fps 60; Sport Performance Spray Sunscreen Ecran Solaire En Vaporisateur SPF Fps 30; Sport Performance Spray Sunscreen Ecran Solaire En Vaporisateur SPF/fps 15; Sport Performance Spray Sunscreen écran Solaire En Vaporisateur SPF Fps 100; Sport Performance Spray Sunscreen écran Solaire En Vaporisateur SPF/fps 60 Photostable; Sport Performance Spray Sunscreen/ecran Solaire En Vaporisateur SPF Fps 50; Sport Performance Sunscreen Lotion Ecran Solaire SPF/fps 30; Sport Performance Sunscreen Lotion Ecran Solaire SPF/fps 50; Sport Performance Sunscreen Lotion Lotion écran Solaire SPF Fps 60; Sport Performance Sunscreen Lotion Lotion écran Solaire SPF/fps 30 Photostable; Sport Performance Sunscreen Lotion Lotion écran Solaire SPF/fps 60 Photostable; Sport Performance Sunscreen Lotion écran Solaire SPF Fps 30 Technologie Avotriplex Technology; Sport Performance Sunscreen Lotion écran Solaire SPF Fps 50 Technologie Avotriplex Technology; Sport Performance Sunscreen Stick Ecran Solaire En Bâtonnet SPF Fps 50; Sport Performance Sunscreen écran Solaire SPF Fps 100; Sport SPF 30; Sport SPF 30 Body and Scalp Quick Dry Spray; Sport SPF 50; Sport SPF 70; Sport SPF/fps 30 Sunscreen Spray écran Solaire En Vaporisateur; Sport Sunscreen; Sport Sunscreen Broad Spectrum SPF 15 Lotion; Sport Sunscreen Broad Spectrum SPF 15 Spray; Sport Sunscreen Broad Spectrum SPF 30 Lotion; Sport Sunscreen Broad Spectrum SPF 30 Spray; Sport Sunscreen Broad Spectrum SPF 60 Lotion; Sport Sunscreen Broad Spectrum SPF 60 Spray; Sport Sunscreen LiquidShade; Sport Sunscreen SPF 15 Meijer; Sport Sunscreen SPF 30 Lotion; Sport Sunscreen Stick Broad Spectrum SPF 30; Sport Sunstick SPF 30 Sunscreen; Sport for Kids Sunscreen Lotion Spray SPF 50+; Spray Auto-bronzant SPF 15; Spray Bronzant Protecteur SPF 10; Spray Des Intolerances Solaires; Spray Huile Solaire Bronzage Intense SPF 4; Spray Lotion Solaire Haute Protection SPF 15; Spray Solaire Bronzage Tres Rapide Special Peaux Halees SPF 6; Spray Solaire Huile Embellissante Corps SPF 30; Spray Solaire Lait-fluide Douceur SPF 20; Spray Solaire Lotion Non Grasse Protection Moyenne Spécial Sports 15 SPF; Spray Solaire Lotion Non Grasse Spécial Sports SPF 15; Spray Solaire Protection élevée SPF 50; Spray Solaire Transparent; Spray Sunscreen écran Solaire En Vaporisateur SPF Fps 30; Spray Sunscreen écran Solaire En Vaporisateur SPF Fps 60; Spray for Children SPF 50+; Sprayable Sunscreen Lotion SPF 40; Spraygel; Spraygel With Instant Bronze Tint SPF 15; Spraygel With Instant Bronze Tint SPF 30; Spraygel With Instant Bronze Tint SPF/fps 15; Spritz Solaire Corps Fps 30; Stick Nutri Protecteur Protection Elevee; Stick Solaire Pour Zones Sensibles SPF 30; Stila CC Color Correcting Broad-Spectrum SPF 20 (All Shades); Stila Hydrating Primer Oil-Free SPF 30 (All Shades); Stila Sheer Color Tinted Moisturizer SPF 15; Stokoderm Sun Protect 30 PURE; Stokoderm Sunprotect 30 Pure; Stokoderm UV 30; Stop The Clock Broad Spectrum SPF 50; StriVectin Advanced Retinol Day Moisturizer Broad Spectrum SPF30; StriVectin Clinical Corrector ANTI-AGING LIP TINT PINK; StriVectin Clinical Corrector ANTI-AGING LIP TINT PLUM; StriVectin-SH NIA-114 UVA UVB Shields SPF 30; Strivectin-AR Advanced Retinol Day Lotion SPF 30; Strivectin-CC Clinical Corrector Anti-aging Lip Tint SPF 20; Studio Moisture Fix Broad Spectrum SPF 15; Sublime Sun Lotion SPF 15; Sublime Sun Lotion SPF 30; Sublime Sun Lotion SPF 50; Sublime Sun Mousse SPF 30; Sublime Sun Mousse SPF 50; Sublime Sun Oil Spray SPF 15; Sublime Sun Oil Spray SPF 30; Sublime Sun Oil Spray SPF 50; Sublime Sun Ultra Fluid Lotion SPF 30; Sublime Sun Ultra Fluid Lotion SPF 50; Sugar Bloom Lip Treatment Sunscreen SPF 15; Sugar Fig Tinted Lip Treatment Sunscreen SPF 15; Sugar Lip Treatment Sunscreen SPF 15; Sugar Nude Tinted Lip Treatment Sunscreen SPF 15; Sugar Poppy Lip Treatment Sunscreen SPF 15; Sugar Punch Lip Treatment Sunscreen SPF 15; Sugar Rose Extreme Tinted Lip Treatment Sunscreen SPF 15; Sugar Rose Lip Treatment Sunscreen SPF 15; Sugar Sport Treatment Sunscreen SPF 30; Sumadan Xlt; Summer Glow Daily Moisturizer SPF 20; Sun + Avon Sport Fresh Technologie Derma Plus Technology Sunscreen Lotion SPF/fps 50; Sun + Avon Sport Refresh Technologie Derma Plus Technology Sunscreen Lotion SPF/fps 30; Sun + Avon Technologie Derma Plus Technology Sunscreen Spray; Sun Bathe Sunscreen; Sun Bathe Sunscreen SPF 20; Sun Broad Spectrum SPF 30 CVS; Sun Broad Spectrum SPF 30 Jafra; Sun Bum 50; Sun Bum Face 50 Sunscreen; Sun Bum Premium Sunscreen Face Broad Spectrum SPF 30; Sun Bum SPF 15 Moisturizing Tanning; Sun Bum SPF 15 Premium Moisturizing Sunscreen; Sun Bum SPF 30 Premium Moisturizing Sunscreen; Sun Bum SPF 30 Watermelon; Sun Bum SPF 50 Premium Moisturizing Sunscreen; Sun Bum SPF 70 Premium Moisturizing Sunscreen; Sun Bum Sunscreen Lip Balm Broad Spectrum SPF 30 Banana; Sun Bum Sunscreen Lip Balm Broad Spectrum SPF 30 Coconut; Sun Bum Sunscreen Lip Balm Broad Spectrum SPF 30 Key Lime; Sun Bum Sunscreen Lip Balm Broad Spectrum SPF 30 Mango; Sun Bum Sunscreen Lip Balm Broad Spectrum SPF 30 Pink Grapefruit; Sun Bum Sunscreen Lip Balm Broad Spectrum SPF 30 Pomegranate; Sun Care For Face; Sun Care for Body; Sun Defeated Sunscreen; Sun Defense SPF 15; Sun Defense SPF 30; Sun Diffusing Protector SPF 15 Bioelements; Sun Expert; Sun Face Protector Sunscreen Broad Spectrum SPF 50 Jafra; Sun Facial Sunscreen 20 SPF for Sensitive Skin Alba Botanica; Sun Kids Sunscreen 32 SPF; Sun Potion 15 SPF/fps; Sun Premium Face 50 SPF; Sun Protection Body Sunscreen Broad Spectrum SPF 30; Sun Protection Body Sunscreen Broad Spectrum SPF 30 La Prairie; Sun Protection Cream SPF 30; Sun Protection Cream SPF 45; Sun Protection Emulsion Face Broad Spectrum SPF 30 La Prairie Group; Sun Protection Emulsion Face la prairie; Sun Protection Face Sunscren Broad Spectrum SPF 30; Sun Protection Stick SPF 15; Sun Protective Day Cleanser Sunscreen; Sun Protective Day Moisturizer Sunscreen; Sun Protector Lotion Spray for Body SPF 30; Sun Protector Lotion Spray for Body SPF 50; Sun Protector Weightless Lotion for Face and Body; Sun Protector Weightless Lotion for Face and Body SPF 30; Sun Shades Lip Balm Butter Rum; Sun Shades Lip Balm Caramel Toffee; Sun Shades Lip Balm Coconut Smoothie; Sun Shades Lip Balm Key Lime Pie; Sun Shades Lip Balm Mountain Mint; Sun Shades Lip Balm Peach Mango; Sun Shades Lip Balm Pina Colada; Sun Shades Lip Balm Pineapple Paradise; Sun Shades Lip Balm Pink Grapefruit; Sun Shades Lip Balm STropical Fruit Sorbet; Sun Shades Lip Balm Strawberry Daiquiri; Sun Shades Lip Balm Strawberry Tart; Sun Shades Lip Balm Sugar and Spice; Sun Shades Lip Balm Vanilla Bean; Sun Shades Lip Balm Watermelon Lemon; Sun Shades Sport Plus; Sun Sport Sunscreen 32 SPF; Sun Spray Lotion 30; Sun Spray SPF 30; Sun Stick SPF 45; Sun Therape Body SPF-35; Sun Therape Face SPF-35; Sun Therape Face and Body SPF-35; Sun Therape Pro Sport Face and Body SPF-35; Sun Therape Pro Sport SPF-35; Sun Therape Sport SPF-35; Sun Ultimate Cream/crème SPF/fps 30; Sun Ultimate Spray SPF/fps 30; Sun Verbena Protective Body Protection SPF 15; Sun Verbena Protective Gloss Protection; Sun X Multi-Pack SPF 30 Thick; Sun XSPF 30 Broad Spectrum Sunscreen Lip Balm; Sun protection body SPF 30; Sun+ Avon Technologie Derma Plus Technology Sunscreen Face Lotion; Sun+ Avon Technologie Derma Plus Technology Sunscreen Lotion; Sun-Defying Sunscreen Oil Broad Spectrum SPF 50 Supergoop; SunBum SPF 15; SunBum SPF 30; SunBum SPF 50; SunBum SPF 70; SunScreen SPF 30; SunZone Baby SPF 30 Sunscreen Broad Spectrum; SunZone Baby Sunscreen SPF-60 Broad Spectrum; SunZone Family SPF 30 Broad Spectrum; SunZone Family SPF 45 Broad Spectrum; SunZone Family Sunscreen SPF-60 Broad Spectrum; SunZone Kids SPF 30 Sunscreen Broad Spectrum; SunZone Kids SPF 45 Broad Spectrum; SunZone SPF-60 Broad Spectrum; SunZone Sport SPF 30 Sunscreen Broad Spectrum; SunZone Sport Sunscreen SPF-60 Broad Spectrum; SunZone Sunscreen Family SPF 30 Broad Spectrum; SunZone Sunscreen Kids SPF 60 Broad Spectrum; SunZone Sunscreen Sport SPF 45 Broad Spectrum; SunZone Work Sunscreen SPF-60 Broad Spectrum; Sunbar SPF 15; Sunbar SPF 30; Sunblock Oil Free SPF/fps 30; Sunblock Oil Free SPF/fps 60; Sunblock SPF 15 Fragrance-free Spray; Sunblock SPF 15 Scented Spray; Sunburn Protection Broad Spectrum SPF 20 Sunscreen; Suncare By Vaseline Gel SPF 15; Suncare By Vaseline Kids Lotion Spf25; Suncare By Vaseline Lotion SPF 15; Suncare By Vaseline Lotion SPF 25; Suncare By Vaseline Spray SPF 15; Suncare Non-greasy Sunscreen Broad Spectrum SPF 50; Suncare SPF 50 Sunscreen; Sundays Max Protec Sunscreen Crm Spf15+; Sundays Sunscreen Cream SPF 30+; Sundays Very High Protection Face Block Stick; Sunfitness Creme Fondante SPF 30; Sunfitness Gelee Fraicheur SPF 15; Sunfitness Lait Fondant SPF 15; Sunfitness Lait Fondant SPF 30; Sungirl SPF 20; Sungirl SPF 30; Sunless Tanning Lotion SPF 15; Sunlogics Sunscreen Lotion Broad Spectrum SPF 25 Water Resistant; Sunright 15 - Lot; Sunright 23 Face & Hands - Lot; Sunright 28 - Lot; Sunright 50 SPF 50; Sunright BodyBlock SPF15; Sunright Broad Spectrum SPF 30; Sunright SPF 15; Sunright SPF 30; Sunright Spray 13 - Asp Liq; Sunscreen; Sunscreen 30; Sunscreen Application SPF 50 Rocky Mauntain; Sunscreen Broad Spectrum SPF 30 Lotion; Sunscreen Broad Spectrum SPF 30 Spray; Sunscreen Broad Spectrum SPF 50 Jafra; Sunscreen Broad Spectrum SPF 60 Lotion; Sunscreen Broad Spectrum SPF 60 Spray; Sunscreen Continuous Spray; Sunscreen Continuous Spray No Pumping Needed; Sunscreen Continuous Spray SPF 30; Sunscreen Continuous Spray SPF 50; Sunscreen Continuous Spray SPF/fps 30; Sunscreen Continuous Spray SPF/fps 60; Sunscreen Cream Spf60; Sunscreen Face Cream SPF 4; Sunscreen Face Lotion; Sunscreen Face Stick Sun Bum Broad Spectrum SPF 30; Sunscreen Face and Body Broad Spectrum SPF 30; Sunscreen Family SPF 30; Sunscreen Family SPF 50+; Sunscreen Gel SPF 30; Sunscreen Kids Application SPF 50 Rocky Mauntain; Sunscreen Kids SPF 50+; Sunscreen Lip Balm Shopko; Sunscreen Lip Balm Sun Bum SPF 30; Sunscreen Lotion Ecran Solaire 15; Sunscreen Lotion Ecran Solaire 30; Sunscreen Lotion Ecran Solaire SPF/fps 30; Sunscreen Lotion Ecran Solaire SPF/fps 50+; Sunscreen Lotion Face SPF 30; Sunscreen Lotion Family SPF 30; Sunscreen Lotion Kids SPF 30; Sunscreen Lotion Kids SPF 50+; Sunscreen Lotion Lotion Ãcran Solaire SPF Fps 30; Sunscreen Lotion Lotion écran Solaire SPF Fps 60; Sunscreen Lotion SPF 15; Sunscreen Lotion SPF 30; Sunscreen Lotion SPF 50; Sunscreen Lotion SPF/fps 60; Sunscreen Lotion SPF/fps 70; Sunscreen Lotion Spf15; Sunscreen Lotion Spf30; Sunscreen Lotion Sport SPF 30; Sunscreen Lotion With Hydrating Ribbons SPF/fps 15; Sunscreen Lotion With Hydrating Ribbons SPF/fps 30; Sunscreen Lotion With Hydrating Ribbons SPF/fps 50; Sunscreen Lotion With Skin Rejuvenating Green Tea Lotion écran Solaire Au Thé Vert Revitalisant SPF Fps 8; Sunscreen Lotion/lotion écran Solaire SPF Fps 32; Sunscreen Lotion/lotion écran Solaire SPF/fps 52; Sunscreen Mango and Coconut; Sunscreen Mist Broad Spectrum SPF 30 Supergoop; Sunscreen Mist Broad Spectrum SPF 50 Supergoop; Sunscreen Moisturizer SPF 30; Sunscreen Oil; Sunscreen Oil SPF 20; Sunscreen Oil Spray; Sunscreen SPF 12; Sunscreen SPF 15; Sunscreen SPF 15 Sun Bum; Sunscreen SPF 24; Sunscreen SPF 30; Sunscreen SPF 30 Daylogic; Sunscreen SPF 30 Jafra; Sunscreen SPF 30 Jafra Sun; Sunscreen SPF 30 Sun Bum; Sunscreen SPF 30 Ulta; Sunscreen SPF 30 Wegmans; Sunscreen SPF 50; Sunscreen SPF 50 Plus Broad Spectrum UVA UVB protection; Sunscreen SPF 50 Sun Bum; Sunscreen SPF 6; Sunscreen SPF 70 Rocky Mountain; Sunscreen SPF 70 Sun Bum; Sunscreen SPF30; Sunscreen Sport SPF 30; Sunscreen Sport SPF 50+; Sunscreen Spray 50 SPF; Sunscreen Spray SPF 3; Sunscreen Spray SPF 30; Sunscreen Spray SPF 6; Sunscreen Stick SPF 50+; Sunscreen Stick écran Solaire En Bâtonnet With Aloe Vera/avec Aloès; Sunscreen Water Resistant; Sunscreen for Kids; Sunsorb SPF30; Sunspray; Sunstop SPF 15+ for Kids; Sunthera3 Kids/enfants SPF/fps 50 Continuous Spray; Sunthera3 Sensitive Skin/peau Sensible SPF/fps 60; Sunthera3 Sport SPF/fps 30 Continuous Spray; Suntints Liquid Lip Balm SPF 20; Suntone BROAD SPECTRUM SPF 15; Suntone BROAD SPECTRUM SPF 4; Suntone Broad Spectrum SPF 15; Suntone Broad Spectrum SPF 4; Suntone Broad Spectrum SPF 50 Sunscreen; Suntone Broad Spectrum SPF 8; Suntone Kids Broad Spectrum SPF 50 Sunscreen; Suntone SUNSCREEN BROAD SPECTRUM SPF 45; Sunzen BROAD SPECTRUM SPF 30; Sunzen BROAD SPECTRUM SPF 8; Sunzen Broad Spectrum SPF 30; Sunzen Broad Spectrum SPF 50; Sunzen Broad Spectrum SPF 8; Sunzone Family SPF 15 Broad Spectrum; Sunzone Family SPF 45; Sunzone Family SPF 50; Sunzone Family SPF 60 Broad Spectrum; Sunzone Family Sunscreen SPF 30 Broad Spectrum; Sunzone Kids SPF 45; Sunzone Kids SPF 50; Sunzone Kids SPF 60 Broad Spectrum; Sunzone Sport SPF 45; Sunzone Sport Sunscreen SPF 30 Broad Spectrum; Sunzone Sunscreen Lotion écran Solaire Baby Bebe 15 SPF/fps; Sunzone Sunscreen Lotion écran Solaire Baby Bebe 60 SPF/fps; Sunzone Sunscreen Lotion écran Solaire Baby Bébé 45 SPF/fps; Sunzone Sunscreen Lotion écran Solaire Baby Bébé 50 SPF/fps; Sunzone Sunscreen Lotion écran Solaire Family Famille 15 SPF/fps; Sunzone Sunscreen Lotion écran Solaire Family Famille 45 SPF/fps; Sunzone Sunscreen Lotion écran Solaire Family Famille 50 SPF/fps; Sunzone Sunscreen Lotion écran Solaire Family Famille 60 SPF/fps; Sunzone Sunscreen Lotion écran Solaire Kids Enfants 15 SPF/fps; Sunzone Sunscreen Lotion écran Solaire Kids Enfants 50 SPF/fps; Sunzone Sunscreen Lotion écran Solaire Kids Enfants SPF 45; Sunzone Sunscreen Lotion écran Solaire Sport 15 SPF/fps; Sunzone Sunscreen Lotion écran Solaire Sport 60 SPF/fps; Sunzone Sunscreen Lotion écran Solaire Work Travail 15 SPF/fps; Sunzone Sunscreen Lotion écran Solaire Work Travail 60 SPF/fps; Sunzone Sunscreen Sport SPF 15 Broad Spectrum; Sunzone Sunscreen Sport SPF 60 Broad Spectrum; Sunzone Sunscreen écran Solaire Spray Wet 60 SPF/fps; Super Defense Superdefense Age Defense Moisturizer SPF 25 Dry Combination; Super Defense Superdefense Age Defense Moisturizer SPF 25 Very Dry Skin; Super Fluid Uv Defense SPF 50; Super Origin Cc Spf25 Pa Plus Plus Brightening; Super Power Sunscreen Mousse SPF 50 Supergoop; Superdefense Age Defense Moisturizer Broad Spectrum SPF 25 Very Dry To Dry; Superdefense Daily Defense Moisturizer Broad Spectrum Spf20 (combination Oily - Oily); Superdefense Daily Defense Moisturizer Broad Spectrum Spf20 (very Dry - Dry Comb); Superlustrous Lip Balm; Surfers Skin Sunscreen Lip Balm; Susan Lucci Youthful Essence For Eyes Instant Smoothing Day Treatment SPF 15; Susanne Kaufmann Suncare Body Broad Spectrum Protection Sunscreen SPF 25 Uvb Uva; Sweatproof Sunscreen SPF 30; TECHNIblock ULTRA SUNSCREEN; Tahitian Noni Sunscreen; Tahitian Noni Sunscreen SPF 30; Tahitian Noni TePoema Element Shield SPF 20; Tan Towel SPF 30 Bronzing Mist Broad Spectrum; Tan Towel SPF 30 Clear Broad Spectrum; Tanning Dry Oil SPF 15 Dollar General; TeMana Tahiti Noni Brightening Facial Shield SPF50; Tea Blend Daily Moisturizer SPF 15 Jafra; Tea Blend Samples Jafra; Tender Moments Baby Sunscreen Broad Spectrum SPF 45 Jafra; Tender Moments Baby Sunscreen Broad Spectrum SPF 50 Jafra; Tendertone Lip Balm SPF 12; Tensolift; The Art of Shaving Daily Sunscreen Broad Spectrum SPF 15; The Body Shop Pomegranate SPF 15; The Fresh Market SPF 15 Lip Balm Broad Spectrum Acai Berry; The Good Stuff AfterShave SPF 15; The SPF 18 Fluid Tint; The Skincare Day Essential Moisturizer Enriched SPF 10; The Skincare Day Essential Moisturizer Light SPF 10; The Skincare Day Essential Moisturizer SPF 10; The Skincare Protective Lip Conditioner SPF 10; The Youth As We Know It; Therapeutic Aquaderm-15; Thermal Fix Uv SPF 20; Thermal S Uv SPF 20; Thermalab Daily Body SPF30 Broad Spectrum; Tiege Hanley AM Morning Facial Moisturizer with SPF20; Tiege Hanley Daily Moisturizer SPF20; Time Frame Future Resist Foundation Broad Spectrum SPF 20 Truffle Delilah Cosmetics; Time Repair A.M.; Time Zone Line and Wrinkle Reducing Creme SPF 15 Normal Combo Skin; Time Zone Line and Wrinkle Reducing Creme SPF 15 for Dry Skin; Timeless Anti-Aging BB Broad Spectrum SPF 30; Timeless Ferment Sanil Sun; Timewise Day Solution sunscreen SPF 35; Timewise Day Solution sunscreen SPF 35 14ml; Tinted Lipbalm; Tinted Moisturizer SPF 20 Bisque; Tinted Moisturizer SPF-20 Golden Radiance; To Save Face SPF 30 Plus Facial Sunscreen; Tom Ford Face Protect Broad Spectrum SPF 50; Tone Correcting Daily Lotion; Tonymoly Magic Food Mango Mild Sun Block; TopCare Daily Moisturizer for face; Topcare Daily Facial; Total Cover Cream Foundation; Total Cover Cream Foundation Broad Spectrum SPF 30 Sunscreen G10; Total Cover Cream Foundation Broad Spectrum SPF 30 Sunscreen G20; Total Cover Cream Foundation Broad Spectrum SPF 30 Sunscreen G30; Total Cover Cream Foundation Broad Spectrum SPF 30 Sunscreen G40; Total Cover Cream Foundation Broad Spectrum SPF 30 Sunscreen G50; Total Cover Cream Foundation Broad Spectrum SPF 30 Sunscreen G60; Total Cover Cream Foundation Broad Spectrum SPF 30 Sunscreen G70; Total Cover Cream Foundation Broad Spectrum SPF 30 Sunscreen G80; Total Cover Cream Foundation Broad Spectrum SPF 30 Sunscreen N0; Total Cover Cream Foundation Broad Spectrum SPF 30 Sunscreen N10; Total Cover Cream Foundation Broad Spectrum SPF 30 Sunscreen N100; Total Cover Cream Foundation Broad Spectrum SPF 30 Sunscreen N110; Total Cover Cream Foundation Broad Spectrum SPF 30 Sunscreen N120; Total Cover Cream Foundation Broad Spectrum SPF 30 Sunscreen N20; Total Cover Cream Foundation Broad Spectrum SPF 30 Sunscreen N25; Total Cover Cream Foundation Broad Spectrum SPF 30 Sunscreen N30; Total Cover Cream Foundation Broad Spectrum SPF 30 Sunscreen N35; Total Cover Cream Foundation Broad Spectrum SPF 30 Sunscreen N40; Total Cover Cream Foundation Broad Spectrum SPF 30 Sunscreen N50; Total Cover Cream Foundation Broad Spectrum SPF 30 Sunscreen N60; Total Cover Cream Foundation Broad Spectrum SPF 30 Sunscreen N70; Total Cover Cream Foundation Broad Spectrum SPF 30 Sunscreen N80; Total Cover Cream Foundation Broad Spectrum SPF 30 Sunscreen N90; Total Cover Cream Foundation Broad Spectrum SPF 30 Sunscreen P10; Total Cover Cream Foundation Broad Spectrum SPF 30 Sunscreen P20; Total Cover Cream Foundation Broad Spectrum SPF 30 Sunscreen P30; Total Cover Cream Foundation Broad Spectrum SPF 30 Sunscreen P40; Total Cover Cream Foundation Broad Spectrum SPF 30 Sunscreen P50; Total Cover Cream Foundation Broad Spectrum SPF 30 Sunscreen P60; Total Cover FX; Total Suncare Sunscreen SPF 15; Total Suncare Sunscreen SPF 30; Total Suncare Sunscreen SPF 50; Total Suncare Sunscreen SPF 70; Total Truth Eye CRème SPF 15; Total Truth Eye Creme SPF 15 Ole Henriksen; Tourist Spf30; Traitement Solaire Sun Mat Control; Traveler Spf15; Treat and Tint Skin Perfecting Bb SPF 30; Tri-phasic White Day Milk Lotion SPF 15; TriLipiderm Broad Spectrum SPF 30; Trienelle Skincare Daily Renewal Creme with Tocallure Restoration Complex Broad Spectrum SPF 15; Trienelle Skincare Instant Illusion Daily Renewal Creme; Triple Age Repair Moisturizer; Triple Defense Treatment; Triple Defense Treatment for Men; Triple Performing Facial Emulsion; Triple Protect Face Lotion SPF 20; Tropical Coconut SPF 30 Broad Spectrum; Tropical SPF 15 Lip; TruAge AGE Therapy Lip Balm SPF15; TruAge Lip Balm Pink Grapefruit SPF15; TruAge Lip Balm Pomegranate Mint SPF15; Trucco Triplicity SPF 15; True Blue Spa Cooling Sunscreen Mist Broad Spectrum SPF 25 Water Resistant (40 minutes) Monoi Oil; Truist Sunscreen Moisturizer; Truth Revealed Super Creme With SPF 15; Truth Revealed super creme SPF 15 Ole Henriksen; Turf Screen Crew Broad Spectrum Sunscreen; ULTA Sunscreen SPF 30; USANA Lip Moisturizer; UV Capture Vita Sun Gel; Ulimate Sheer SPF 85 Rite Aid; Ulta Beauty Broad Spectrum SPF 30 Sunscreen; Ulta Beauty SPF 15 Broad Spectrum Sunscreen; Ulta Beauty SPF 30 Broad Spectrum Sunscreen; Ulta Beauty SPF 50 Broad Spectrum Sunscreen; Ulta Broad Spectrum SPF 15; Ulta Broad Spectrum SPF 15 Medium Deep; Ulta Broad Spectrum SPF 30; Ulta Broad Spectrum SPF 50; Ulta Broad Spectrum SPF 70; Ulta Broad Spectrum SUNSCREEN SPF80; Ulta Face SPF 30; Ulta SPF 15; Ulta SPF 15 Broad Spectrum Light to Medium Tinted Sunless Sunscreen; Ulta SPF 15 Broad Spectrum Tinted Sunless Sunscreen for Face; Ulta SPF 15 Light Medium Broad Spectrum; Ulta SPF 15 Medium Deep Broad Spectrum tinted sunscreen; Ulta SPF 20 Broad Spectrum Water Resistant Sunscren with Shimmer; Ulta Sun Dry Touch SPF 55; Ulta Sun Dry Touch SPF 70; Ulta Sunscreen SPF 15; Ulta Sunscreen SPF 30; Ulta Sunscreen SPF 50; Ultimate Aqua Blanc Protective; Ultimate Aqua Blanc Protective 10ml; Ultimate Aqua Blanc Protective Lotion; Ultimate Day Age Defying Cream Creme Defi-age SPF/fps 25; Ultimate Day Transforming Lift Cream SPF 15; Ultimate Sheer; Ultimate Sheer Sunscreen SPF 100 Rite Aid; Ultimate Sheer Sunscreen SPF 85 Rite Aid; Ultimate Sheer Tinted Moisturizer 181 Nude/nue; Ultimate Sheer Tinted Moisturizer 182 Natural/naturel; Ultimate Sport Face Sunscreen Lotion; Ultimate Sport Sunscreen; Ultimate Sport Sunscreen Lotion; Ultimate Sport Sunscreen Lotion SPF 30; Ultimate Sport Sunscreen Spray SPF 30; Ultimate Sport Sunscreen Spray SPF 45; Ultimate Sport Sunscreen Spray SPF 60; Ultimate Sport Sunscreen Spray SPF 70; Ultimate Sport Sunscreen Spray SPF 85; Ultimate Transforming Hand and Nail Cream SPF 15; Ultra Calming Daily Moisturizer SPF 15; Ultra Correction Creme Retructurante - SPF 10; Ultra Correction Emulsion Restructurante - SPF 10; Ultra Correction Lift CRème De Jour Lift Fermeté; Ultra Correction Lift Fluide De Jour Lift Fermete; Ultra Correction Lift SPF 15; Ultra Correction Line Repair - CRème De Jour Anti-rides; Ultra Correction Line Repair - Fluide De Jour Anti-rides; Ultra Correction Line Repair SPF 15; Ultra Correction SPF 15; Ultra Defense Spray Sunscreen / écran Solaire En Vaporisateur SPF/fps 60; Ultra Defense Spray Sunscreen Ecran Solaire En Vaporisateur SPF/fps 30; Ultra Defense Spray Sunscreen écran Solaire En Vaporisateur SPF Fps 100; Ultra Defense Spray Sunscreen écran Solaire En Vaporisateur SPF/fps 60 Photostable; Ultra Defense Spray Sunscreen/ecran Solaire En Vaporisateur SPF/fps 50; Ultra Defense Sunscreen Lotion Ecran Solaire SPF/fps 15; Ultra Defense Sunscreen Lotion Ecran Solaire SPF/fps 30; Ultra Defense Sunscreen Lotion Lotion écran Solaire SPF Fps 30 Photostable; Ultra Defense Sunscreen Lotion Lotion écran Solaire SPF Fps 60; Ultra Defense Sunscreen Lotion Lotion écran Solaire SPF Fps 60 Photostable; Ultra Defense Sunscreen Lotion Lotion écran Solaire SPF/fps 15 Photostable; Ultra Defense Sunscreen Lotion écran Solaire SPF Fps 15 Technologie Avotriplex Technology; Ultra Defense Sunscreen Lotion écran Solaire SPF Fps 30 Technologie Avotriplex Technology; Ultra Defense Sunscreen Lotion écran Solaire SPF Fps 50; Ultra Defense Sunscreen Lotion écran Solaire SPF Fps 50 Technologie Avotriplex Technology; Ultra Defense Sunscreen Stick écran Solaire En Bâtonnet SPF Fps 50; Ultra Defense Sunscreen écran Solaire SPF Fps 100; Ultra Facial Moisturizer SPF 30; Ultra Lift Anti-wrinkle Firming Moisturizing Cream; Ultra Light Sunscreen Broad Spectrum SPF 50; Ultra Light Sunscreen Broad Spectrum SPF 50 Merle Norman; Ultra Mist Banana Boat Kids Sunblock Lotion Ecran Solaire Pour Enfants Uva & Uvb SPF Fps 50; Ultra Mist Banana Boat Sport Clear Sunblock Ecran Solaire Incolore Uva & Uvb SPF Fps 30; Ultra Mist Banana Boat Ultra Clear Sunblock Ecran Solaire Incolore Uva & Uvb SPF Fps 30; Ultra Protection Eye Lip Nose Sunscreen Broad Spectrum SPF 40; Ultra Protection SPF 70; Ultra Protection Stick Broad Spectrum SPF 40 La Prairie Switzerland; Ultra Protection Sunscreen Stick SPF 60; Ultra Protection stick La prarie Switerland; Ultra Sheer Body Mist Sunscreen SPF 100; Ultra Sheer Body Mist Sunscreen SPF 85; Ultra Sheer Daily Defense Facial SPF 18; Ultra Sheer Dry Touch Sunscreen SPF 30; Ultra Sheer Dry-touch Sunscreen SPF 100; Ultra Sheer Dry-touch Sunscreen SPF 110; Ultra Sheer Dry-touch Sunscreen SPF 45; Ultra Sheer Dry-touch Sunscreen SPF 55; Ultra Sheer Dry-touch Sunscreen SPF 60; Ultra Sheer Face & Body Stick SPF 60; Ultra Sheer Face & Body Stick Sunscreen SPF 50+; Ultra Sheer Face Sunscreen SPF 110; Ultra Sheer Face Sunscreen SPF 45; Ultra Sheer Face Sunscreen SPF 60; Ultra Sheer Face Sunscreen SPF 70; Ultra Sheer Water Light; Ultra Soft Hydrating Sunblock SPF 30; Ultra Soft Hydrating Sunblock SPF 45; Ultra Sun Protection Lotion Ti; Ultra Sun Protection Spray; Ultra Sunscreen; Ultra-fluid Body Milk Sun Protection SPF 15; Ultra-fluid Body Milk Sun Protection SPF 30; Ultra-fluid Protection SPF 20; Ultra-fluid Sun Protection SPF 30; Ultra-lift SPF 15; Ultra-light Lotion SPF 50; Ultrasol KIDS Sunscreen; Ultrasol Kids; Ultrasol OIL-FREE Sunscreen; Ultrasol Sport; Ultrasol Sport Sunscreen; Ultrasol Sunscreen; Ultrasol Sunscreen Lotion SPF 45; Ultrasol Sunscreen Spf45; Ultrasol nature BABY Sunscreen; UltrasolSunscreen Clear CONTINUOUS SPRAY SPF43; UltrasolSunscreen KIDS Clear CONTINUOUS SPRAY; UltrasolSunscreen KIDS Sunscreen Lotion; UltrasolSunscreen KIDS Sunscreen Lotion Continuous Spray SPF 45; UltrasolSunscreen KIDS Sunscreen Lotion SPF 34; UltrasolSunscreen KIDS Sunscreen Mousse; UltrasolSunscreen KIDS Sunscreen Spray Lotion SPF 30; UltrasolSunscreen Sport Clear CONTINUOUS SPRAY; UltrasolSunscreen Sport Sunscreen Lotion CONTINUOUS SPRAY SPF 45; UltrasolSunscreen Sunscreen Face Cream SPF 34; UltrasolSunscreen Sunscreen Lotion Continuous Spray SPF 45; UltrasolSunscreen Sunscreen Lotion SPF 15; UltrasolSunscreen Sunscreen Lotion SPF 34; UltrasolSunscreen Sunscreen Lotion SPF45; UltrasolSunscreen Sunscreen Spray Lotion SPF 15; UltrasolSunscreen nature BABY Sunscreen Face Cream SPF 45; United Spirit of America BROAD SPECTRUM SPF 30 Sunscreen; Universal Anti-aging Daily Moisturizing Cream SPF 30; Unscented Body SPF 30 Broad Spectrum; Unscented Classic Face SPF 30 Broad Spectrum; Unseen Sunscreen Broad Spectrum SPF 40; Urban Decay Urban Defense Complexion Primer Broad Spectrum SPF 30; Urban Defense; Uv Expert SPF 15; Uv Lock Flower Daily Powerful Sun Spf50plus Pa Plus Plus Plus; Uv Lock Flower Mild Sun Spf35 Pa Plus Plus; Uv Protectant SPF 15 Lot; Uv Stop - Lot; Vanilla Mint Lip SPF 30 Balm; Vanilla SPF 15 Lip; Vapo Haute Protection Soleil Sun High Protection Spray Fps 30 SPF; Vaseline Br.int.care Broad Spectrum Sb.spf15; Vaseline Intensive Care Aloe Fresh SPF 15; Vaseline Total Moisture Aloe Fresh SPF 15; Venofye Orchard Bee Brilliance SPF 30; Vialprotection Age Defying Protective SPF 50; Vichy Creme Ecran Total Intol.soc. SPF 30; Vichy Laboratoire Capital Soleil SPF 30 Soft Sheer Sunscreen; Vichy Laboratoire Capital Soleil SPF 60 Soft Sheer Sunscreen; Vichy Laboratoires Aqualia Antiox Pro-Youth Anti-Oxidant 24Hr Hydrating Fluid SPF 12; Vichy Laboratoires Aqualia Thermal Sunscreen; Vichy Laboratoires Capital Soleil 30 Broad Spectrum SPF 30 Sunscreen Luxurious Protective; Vichy Laboratoires Capital Soleil 30 Sunscreen Luxurious Protective; Vichy Laboratoires Capital Soleil SPF 50 Ultra Light Sunscreen; Vichy Laboratoires Ideal Capital Soleil 45 Sunscreen Broad Spectrum SPF 45 Water Resistant 80 Minutes; Vichy Laboratoires Ideal Capital Soleil 50 Sunscreen Broad Spectrum SPF 50 Water Resistant 40 Minutes; Vichy Laboratoires Ideal Capital Soleil 60 Sunscreen Broad Spectrum SPF 60 Water Resistant 40 Minutes; Vichy Laboratoires LiftActiv Retinol HA Total Anti-Wrinkle Daily Intervention SPF 18; Vichy Laboratoires Liftactiv Retinol HA Broad Spectrum SPF 18 Sunscreen; Vichy Lait Ecran Total Intoler.sol. SPF 30; Vichy Lait Ecran Total Special Enf.SPF 25; Vichy Lait Hydratant Bronzage Progresif Spf8; Vichy Lait Protecteur SPF 15; Vichy-creme Ecran Total SPF 25; Vichy-creme Haute Protection SPF 15; Vichy-lait Ecran Total SPF 25; Victorias Secret Pink Broad Spectrum SPF 25 Sunscreen Sunkissed; Victorias Secret Sun Broad Spectrum SPF 25; Villa Floriani Chamomile Calming Day SPF 20; Villa Floriani Mint Purifying Day SPF 20; Vincent Longo Ultra Light Canvas Tinted Moisturizer Broad Spectrum SPF 20 Sunscreen Shade 1; Vincent Longo Ultra Light Canvas Tinted Moisturizer Broad Spectrum SPF 20 Sunscreen Shade 2; Vincent Longo Ultra Light Canvas Tinted Moisturizer Broad Spectrum SPF 20 Sunscreen Shade 3; Vincent Longo Ultra Light Canvas Tinted Moisturizer Broad Spectrum SPF 20 Sunscreen Shade 4; Vincent Longo Ultra Light Canvas Tinted Moisturizer Broad Spectrum SPF 20 Sunscreen Shade 5; Vincent Longo Ultra Light Canvas Tinted Moisturizer Broad Spectrum SPF 20 Sunscreen Shade 6; Vine Vera Resveratrol Zinfandel Radiance; Vinexpert Broad Spectrum SPF 15 Radiance Day; Vinexpert Broad Spectrum SPF 15 Radiance Day Fluid; Vinoperfect Broad Spectrum SPF 15 Day Perfecting; Vinoperfect Broad Spectrum SPF 15 Day Perfecting Fluid; Vinoperfect Radiance Moisturizer Broad Spectrum SPF20; Visible Difference Gentle Hydrating Broad Spectrum Sunscreen SPF 15; Visible Difference Gentle Hydrating Cream SPF 15; Visible Lift C.C. Cream SPF 20; Visual Perfection Tint Releasing Moisturizer SPF 20; Vita Lift SPF 15 Daily Moisturizer; Vital Protection SPF 15; Vital Sun Protection SPF 15; Vital Sun Protection SPF 30; Vital Sun Protection SPF 40; Vitamin C Daily Moisturiser With SPF 15; Vitamin C Daily Moisturizer SPF 30; Vitamin C Glow-protect Lotion SPF 30; Vitamin C Glow-protect SPF 30; Vitamin Cream C Plus C; Vitamin E Day SPF 15; Vitamin E Lip Care SPF 15; Vitamin E Moisture Lotion Spf15; Vitamin E Moisture SPF 15; Vitamin E Moisture-protect Emulsion SPF 30 Pa+++; Vitamin E Moisture-protect Lip Care; Vitamin E Moisture-protect Lip Care SPF 15; Vitamin E SPF15 Lip Balm; Vitamin Fluid CC; Vitazing Energy Boosting Moisturizer SPF 15; Vivierskin Sunscreen SPF 30; Vmv Hypoallergenics Armada Sport 50; Volu-firm Day Cream Sunscreen; Volu-firm Day Cream Sunscreen Broad Spectrum SPF 30; Volu-firm Day Cream With SPF 30; Walgreen Clear Complexion; Walgreen Sport SPF 50; Walgreens 7-in-1 Anti-Aging Vitamin Complex Broad Spectrum SPF 15 Sunscreen; Walgreens Advanced Anti-Wrinkle and Firming Day Cream Broad Spectrum SPF18 Sunscreen; Walgreens Anti-Sagging and Ultra Hydrating Day Broad Spectrum SPF15 Sunscreen; Walgreens Anti-Sagging and Ultra Hydrating Day Cream Broad Spectrum SPF15 Sunscreen; Walgreens Clear Face; Walgreens Kids SPF 50; Walgreens SUNSCREEN Sport Broad Spectrum SPF 30; Walgreens Sport Faces SPF 30; Walgreens Sport SPF 50; Walgreens Sun Kids SPF50; Walgreens Sunscreen Baby SPF 50; Walgreens Sunscreen Broad Spectrum SPF 30; Walgreens Sunscreen SPF 30; Walgreens Sunscreen SPF 50; Walgreens Sunscreen Sport SFP 70; Walgreens Sunscreen Sport SPF 30; Walgreens Sunscreen Sport SPF 50; Walgreens Wrinkle Repair Moisturizer SPF30; Walgreens sunscreen Broad Spectrum SPF 15; Water Babies Uv Guard SPF-30 Lotion; Water Babies Uvguard SPF 15 Lotion; Water Resistant Natural Lavender Sun Block SPF 30; Waterbright Radiating; Waterful Sun; Waterguard Kids; Waterguard Kids Sunscreen Clear Spray; Waterproof Solar Spray SPF 25; Waterwhite Brightening Lotion SPF 15; Waterwhite Eye Cream; Western FAMILY SPF 15; Western Family Baby Broad Spectrum Sunscreen SPF 50; Western Family Broad Spectrum Sunscreen SPF 70; Western Family Broad Spectrum SunscreenSPF 50 SPF 50; Western Family Oil Free Faces SPF 30; Western Family Sport Sunscreen SPF 30; Wet Guard Swim Humidity Sweat Sunscreen Lotion; Wet N Wild Ultimate Match SPF 15 Liquid Foundation; Wet Skin Kids; Wet Skin SPF 30; Wet Skin SPF 45; Wet Skin SPF 60; Wet Skin Sunscreen Spray SPF 85; Wet Skin Swim Humidity Sweat Sunscreen Lotion; White Caviar Illuminating Hand Sunscreen Broad Spectrum SPF 15; White Caviar Illuminating Hand Sunscreen Broad Spectrum SPF 15 La Prairie; White Girl Sunscreen; WhiteWater Advanced Brightening WhiteWater Advanced Brightening SPF30; Whitening Glycobest; With 6 SPF Sunscreen Uva/uvb Protection Self Tanning Essential Bronze Milk; With 6 SPF Sunscreen Uva/uvb Protection Self Tanning Ultra Natural Bronze Care; Wonderblur Immediate Skin Smoothing Finishing Broad Spectrum SPF30; Wrinkle Control Day Creme Broad Spectrum SPF 15; Wrinkle Corrector and Firming Moisturizer SPF 15; Yadah Oh My Sun Block; Yadah Oh My Sun Slush; Yam Double Care Fluid Spf17 Pa Plus Plus; YourGoodSkin SPF 30 Anti-oxidant Day Sunscreen Broad Spectrum SPF 30; Youth Cell Day Cream Broad Spectrum SPF-15 Sunscreen (50 ml); Youth Code Day Cream SPF 30; Youth Code Day Lotion SPF 30; Youth Surge Age Decelerating Moisturizer SPF 15; Youth for Life SPF 30; Youth-enriched With Orchid; Yves Saint Laurent Forever Youth Liberator; Yves Saint Laurent Forever Youth Liberator Broad Spectrum SPF 15 Sunscreen Fluid; Yves Saint Laurent Forever Youth Liberator Sunscreen Broad Spectrum SPF 15 Antiwrinkle Lift Plump Radiance; ZO SKIN HEALTH OCLIPSE SUN SPF 50 BROAD SPECTRUM SUNSCREEN SPF 50 FOR FACE PLUS BODY WATER/PERSPIRATION RESISTANT (80 minutes); ZO SKIN HEALTH OCLIPSE SUN SPF 50 BROAD SPECTRUM SUNSCREEN SPF 50 FOR FACE PLUS BODY WATER/PERSPIRATION RESISTANT (80 minutes) UVA / UVB / HEV / IR-A PROTECTION ZOX12; ZO SKIN HEALTH ORASER ANTI-AGING HAND CARE PROGRAM Correct, protect and prevent aging hands; Zermat Skin SPF 50 Broad Spectrum; Zirh Defend Repairing SPF15 Moisturizer; Zo Skin Health Oclipse Daily Sheer Broad-spectrum Sunscreen SPF 50; Zo Skin Health Oclipse Smart Tone Broad-spectrum Sunscreen SPF 50; Zrii New Day Broad Spectrum SPF-30; ageLOC Elements; ageLOC Transformation; benefit DREAM SCREEN BROAD SPECTRUM SPF 45 SUNSCREEN FOR FACE; bu SPF 30 Broad Spectrum Alcohol-Free Performance Sunscreen - Natural Citrus Scent; bu SPF 30 Broad Spectrum Alcohol-Free Performance Sunscreen - Natural White Sage Scent; bu SPF 30 Broad Spectrum on Alcohol-Free Performance Sunscreen - Fragrance Free; bu SPF 50 Broad Spectrum on Alcohol-Free Performance Sunscreen - Fragrance Free; bu SPF 50 KIDS Broad Spectrum Alcohol-Free Performance Sunscreen - Fragrance Free; bu SPF 50 S Broad Spectrum Alcohol-Free Performance Sunscreen - Natural White Sage Scent; color correcting swirl foundation broad spectrum SPF 25 LIGHT; color correcting swirl foundation broad spectrum SPF 25 MEDIUM; color correcting swirl foundation broad spectrum SPF 25 TAN; correcting cream Broad Spectrum SPF 15 asap; daily UV protection cream mild; emilia Naked Sun; emilia Naked Sun SPF 50 Invisible Face Gel; enfuselle BODY SUNSCREEN BROAD SPECTRUM SPF 30; flormar ADVICE Skin Geometry Day Sunscreen Broad Spectrum SPF 15; flormar ADVICE Skin Geometry Purely Moisturizing Day Sunscreen Broad Spectrum SPF 15 Dry and Sensitive Skin; flormar ADVICE Skin Geometry Purely Moisturizing Day Sunscreen Broad Spectrum SPF 15 Normal and Combination Skin; intense UV protection emulsion; keras day shield broad spectrum SPF 25; laura mercier Tinted Moisturizer Creme Compact Broad Spectrum SPF 20 Sunscreen ALMOND; laura mercier Tinted Moisturizer Creme Compact Broad Spectrum SPF 20 Sunscreen BISQUE; laura mercier Tinted Moisturizer Creme Compact Broad Spectrum SPF 20 Sunscreen BLUSH; laura mercier Tinted Moisturizer Creme Compact Broad Spectrum SPF 20 Sunscreen CARAMEL; laura mercier Tinted Moisturizer Creme Compact Broad Spectrum SPF 20 Sunscreen FAWN; laura mercier Tinted Moisturizer Creme Compact Broad Spectrum SPF 20 Sunscreen MOCHA; laura mercier Tinted Moisturizer Creme Compact Broad Spectrum SPF 20 Sunscreen NUDE; laura mercier Tinted Moisturizer Creme Compact Broad Spectrum SPF 20 Sunscreen PORCELAIN; laura mercier Tinted Moisturizer Creme Compact Broad Spectrum SPF 20 Sunscreen SAND; laura mercier Tinted Moisturizer Creme Compact Broad Spectrum SPF 20 Sunscreen TAN; laura mercier Tinted Moisturizer Creme Compact Broad Spectrum SPF 20 Sunscreen TAWNY; laura mercier Tinted Moisturizer Creme Compact Broad Spectrum SPF 20 Sunscreen WALNUT; mally Lip Defender; mally Perfect Prep Poreless Primer; mark. For Gooness Face Antioxidant Skin Moisturizing; meijer Baby Tear Free SPF 50 CS; mesoestetic DERMATOLOGICAL SUN PROTECTION BROAD SPECTRUM; perfect truth cc broad spectrum SPF 30 sunscreen Ole Henriksen; perfect truth cc eye broad spectrum SPF 15 OleHenriksen; recover skin boosting moisturizer broad spectrum SPF 15 Jafra gold dynamics; retrospect day shield broad spectrum SPF 25; skin effects Brightening Day SPF 50; skin effects Firming Facial with Retinol Complex SPF 30; skin elements liquid veil foundation broad spectrum SPF 25 DEEP; skin elements liquid veil foundation broad spectrum SPF 25 GOLDEN MEDIUM; skin elements liquid veil foundation broad spectrum SPF 25 LIGHT; skin elements liquid veil foundation broad spectrum SPF 25 MEDIUM; skin elements liquid veil foundation broad spectrum SPF 25 PORCELAIN; skin elements liquid veil foundation broad spectrum SPF 25 TAN; stila CC color correcting broad-spectrum SPF 20 01 FAIR; stila CC color correcting broad-spectrum SPF 20 02 LIGHT; stila CC color correcting broad-spectrum SPF 20 03 TONE; stila CC color correcting broad-spectrum SPF 20 04 MEDIUM; stila CC color correcting broad-spectrum SPF 20 05 RICH MEDIUM; stila CC color correcting broad-spectrum SPF 20 06 WARM; stila CC color correcting broad-spectrum SPF 20 07 DARK; stila CC color correcting broad-spectrum SPF 20 08 TAN; the Balm BalmShelter tinted moisturizer SPF 18 broad spectrum after dark; the Balm BalmShelter tinted moisturizer SPF 18 broad spectrum dark; the Balm BalmShelter tinted moisturizer SPF 18 broad spectrum lighter than light; the Balm BalmShelter tinted moisturizer SPF 18 broad spectrum medium dark; Écran Solaire Fps 10; Écran Solaire Spécial Rides SPF 15; Écran Total Anti-intolérances Solaires Fps 30; Écran Total Solaire SPF 25; Émulsion Hydratante Antirides

>  <SMILES>  (1) 
COC1=CC=C(C=C1)C(=O)CC(=O)C1=CC=C(C=C1)C(C)(C)C

>  <SYNONYMS>  (1) 
Butyl Methoxydibenzoylmethane; Parsol 1789

$$$$
