
     RDKit          2D

 49 51  0  0  0  0  0  0  0  0999 V2000
    1.6622    1.7437    0.0000 C   0  0  0  0  0  0  0  0  0  0  0  0
    3.8057    2.9812    0.0000 C   0  0  0  0  0  0  0  0  0  0  0  0
    3.0912    1.7437    0.0000 C   0  0  0  0  0  0  0  0  0  0  0  0
    3.2678    4.6505    0.0000 C   0  0  0  0  0  0  0  0  0  0  0  0
   -1.3721    4.6505    0.0000 C   0  0  0  0  0  0  0  0  0  0  0  0
    3.0842    3.8462    0.0000 C   0  0  0  0  0  0  0  0  0  0  0  0
   -1.1885    3.8462    0.0000 C   0  0  0  0  0  0  0  0  0  0  0  0
    2.6630    5.2117    0.0000 C   0  0  0  0  0  0  0  0  0  0  0  0
   -0.7673    5.2117    0.0000 C   0  0  0  0  0  0  0  0  0  0  0  0
    2.2958    3.6030    0.0000 C   0  0  0  0  0  0  0  0  0  0  0  0
   -0.4002    3.6030    0.0000 C   0  0  0  0  0  0  0  0  0  0  0  0
    1.3603    5.6135    0.0000 C   0  0  0  0  0  0  0  0  0  0  0  0
    0.5353    5.6135    0.0000 C   0  0  0  0  0  0  0  0  0  0  0  0
    0.9478    2.9812    0.0000 C   0  0  0  0  0  0  0  0  0  0  0  0
    2.3767    2.9812    0.0000 C   0  0  0  0  0  0  0  0  0  0  0  0
    1.6622    2.5687    0.0000 C   0  0  0  0  0  0  0  0  0  0  0  0
    1.8747    4.9685    0.0000 C   0  0  0  0  0  0  0  0  0  0  0  0
    0.0209    4.9685    0.0000 C   0  0  0  0  0  0  0  0  0  0  0  0
    1.6911    4.1642    0.0000 C   0  0  0  0  0  0  0  0  0  0  0  0
    0.2045    4.1642    0.0000 C   0  0  0  0  0  0  0  0  0  0  0  0
    0.9478    3.8062    0.0000 C   0  0  0  0  0  0  0  0  0  0  0  0
    3.0912    2.5687    0.0000 N   0  0  0  0  0  0  0  0  0  0  0  0
    0.0000    0.0000    0.0000 H   0  0  0  0  0  0  0  0  0  0  0  0
    0.0000    0.0000    0.0000 H   0  0  0  0  0  0  0  0  0  0  0  0
    0.0000    0.0000    0.0000 H   0  0  0  0  0  0  0  0  0  0  0  0
    0.0000    0.0000    0.0000 H   0  0  0  0  0  0  0  0  0  0  0  0
    0.0000    0.0000    0.0000 H   0  0  0  0  0  0  0  0  0  0  0  0
    0.0000    0.0000    0.0000 H   0  0  0  0  0  0  0  0  0  0  0  0
    0.0000    0.0000    0.0000 H   0  0  0  0  0  0  0  0  0  0  0  0
    0.0000    0.0000    0.0000 H   0  0  0  0  0  0  0  0  0  0  0  0
    0.0000    0.0000    0.0000 H   0  0  0  0  0  0  0  0  0  0  0  0
    0.0000    0.0000    0.0000 H   0  0  0  0  0  0  0  0  0  0  0  0
    0.0000    0.0000    0.0000 H   0  0  0  0  0  0  0  0  0  0  0  0
    0.0000    0.0000    0.0000 H   0  0  0  0  0  0  0  0  0  0  0  0
    0.0000    0.0000    0.0000 H   0  0  0  0  0  0  0  0  0  0  0  0
    0.0000    0.0000    0.0000 H   0  0  0  0  0  0  0  0  0  0  0  0
    0.0000    0.0000    0.0000 H   0  0  0  0  0  0  0  0  0  0  0  0
    0.0000    0.0000    0.0000 H   0  0  0  0  0  0  0  0  0  0  0  0
    0.0000    0.0000    0.0000 H   0  0  0  0  0  0  0  0  0  0  0  0
    0.0000    0.0000    0.0000 H   0  0  0  0  0  0  0  0  0  0  0  0
    0.0000    0.0000    0.0000 H   0  0  0  0  0  0  0  0  0  0  0  0
    0.0000    0.0000    0.0000 H   0  0  0  0  0  0  0  0  0  0  0  0
    0.0000    0.0000    0.0000 H   0  0  0  0  0  0  0  0  0  0  0  0
    0.0000    0.0000    0.0000 H   0  0  0  0  0  0  0  0  0  0  0  0
    0.0000    0.0000    0.0000 H   0  0  0  0  0  0  0  0  0  0  0  0
    0.0000    0.0000    0.0000 H   0  0  0  0  0  0  0  0  0  0  0  0
    0.0000    0.0000    0.0000 H   0  0  0  0  0  0  0  0  0  0  0  0
    0.0000    0.0000    0.0000 H   0  0  0  0  0  0  0  0  0  0  0  0
    0.0000    0.0000    0.0000 H   0  0  0  0  0  0  0  0  0  0  0  0
  6  4  2  0
  7  5  2  0
  8  4  1  0
  9  5  1  0
 10  6  1  0
 11  7  1  0
 13 12  1  0
 16  1  1  0
 16 14  1  0
 16 15  1  0
 17  8  2  0
 17 12  1  0
 18  9  2  0
 18 13  1  0
 19 10  2  0
 19 17  1  0
 20 11  2  0
 20 18  1  0
 21 14  1  0
 21 19  1  0
 21 20  1  0
 22  2  1  0
 22  3  1  0
 22 15  1  0
  1 23  1  0
  1 24  1  0
  1 25  1  0
  2 26  1  0
  2 27  1  0
  2 28  1  0
  3 29  1  0
  3 30  1  0
  3 31  1  0
  4 32  1  0
  5 33  1  0
  6 34  1  0
  7 35  1  0
  8 36  1  0
  9 37  1  0
 10 38  1  0
 11 39  1  0
 12 40  1  0
 12 41  1  0
 13 42  1  0
 13 43  1  0
 14 44  1  0
 14 45  1  0
 15 46  1  0
 15 47  1  0
 16 48  1  0
 21 49  1  0
M  END
>  <DATABASE_ID>  (1) 
DB09016

>  <DATABASE_NAME>  (1) 
drugbank

>  <DRUGBANK_ID>  (1) 
DB09016

>  <DRUG_GROUPS>  (1) 
approved

>  <EXACT_MASS>  (1) 
293.214349869

>  <FORMULA>  (1) 
C21H27N

>  <GENERIC_NAME>  (1) 
Butriptyline

>  <INCHI_IDENTIFIER>  (1) 
InChI=1S/C21H27N/c1-16(15-22(2)3)14-21-19-10-6-4-8-17(19)12-13-18-9-5-7-11-20(18)21/h4-11,16,21H,12-15H2,1-3H3

>  <INCHI_KEY>  (1) 
ALELTFCQZDXAMQ-UHFFFAOYSA-N

>  <INTERNATIONAL_BRANDS>  (1) 
Centrolese; Evadene; Evadyne; Evasidol

>  <JCHEM_ACCEPTOR_COUNT>  (1) 
1

>  <JCHEM_AVERAGE_POLARIZABILITY>  (1) 
35.53031790642079

>  <JCHEM_BIOAVAILABILITY>  (1) 
1

>  <JCHEM_DONOR_COUNT>  (1) 
0

>  <JCHEM_FORMAL_CHARGE>  (1) 
0

>  <JCHEM_GHOSE_FILTER>  (1) 
1

>  <JCHEM_IUPAC>  (1) 
dimethyl(2-methyl-3-{tricyclo[9.4.0.0³,⁸]pentadeca-1(15),3,5,7,11,13-hexaen-2-yl}propyl)amine

>  <JCHEM_LOGP>  (1) 
5.4413538893333335

>  <JCHEM_MDDR_LIKE_RULE>  (1) 
0

>  <JCHEM_NUMBER_OF_RINGS>  (1) 
3

>  <JCHEM_PHYSIOLOGICAL_CHARGE>  (1) 
1

>  <JCHEM_PKA_STRONGEST_BASIC>  (1) 
10.005979381820191

>  <JCHEM_POLAR_SURFACE_AREA>  (1) 
3.24

>  <JCHEM_REFRACTIVITY>  (1) 
95.95309999999998

>  <JCHEM_ROTATABLE_BOND_COUNT>  (1) 
4

>  <JCHEM_RULE_OF_FIVE>  (1) 
0

>  <JCHEM_TRADITIONAL_IUPAC>  (1) 
butriptyline

>  <JCHEM_VEBER_RULE>  (1) 
1

>  <MOLECULAR_WEIGHT>  (1) 
293.4458

>  <SALTS>  (1) 
Butriptyline HCl

>  <SMILES>  (1) 
CC(CC1C2=CC=CC=C2CCC2=CC=CC=C12)CN(C)C

>  <SYNONYMS>  (1) 
(±)-3-(10,11-dihydro-5H-dibenzo[a,d]cycloheptene-5-yl)-N,N,2-trimethylpropan-1-amine

$$$$
