
     RDKit          2D

 39 34  0  0  0  0  0  0  0  0999 V2000
    0.4806    0.1409    0.0000 C   0  0  0  0  0  0  0  0  0  0  0  0
    0.1786   -0.9861    0.0000 C   0  0  0  0  0  0  0  0  0  0  0  0
    0.4806    0.9659    0.0000 C   0  0  0  0  0  0  0  0  0  0  0  0
    1.0036   -0.9861    0.0000 C   0  0  0  0  0  0  0  0  0  0  0  0
   -0.9484   -0.6841    0.0000 C   0  0  0  0  0  0  0  0  0  0  0  0
   -0.2339   -0.2716    0.0000 C   0  0  0  0  0  0  0  0  0  0  0  0
    1.1951    1.3784    0.0000 O   0  0  0  0  0  0  0  0  0  0  0  0
   -0.2339    1.3784    0.0000 O   0  0  0  0  0  0  0  0  0  0  0  0
    1.4161   -1.7006    0.0000 O   0  0  0  0  0  0  0  0  0  0  0  0
    1.4161   -0.2716    0.0000 O   0  0  0  0  0  0  0  0  0  0  0  0
   -0.9484   -1.5091    0.0000 O   0  0  0  0  0  0  0  0  0  0  0  0
   -1.6628   -0.2716    0.0000 O   0  0  0  0  0  0  0  0  0  0  0  0
   -0.6464    0.4428    0.0000 O   0  0  0  0  0  0  0  0  0  0  0  0
    6.2113    0.3235    0.0000 C   0  0  0  0  0  0  0  0  0  0  0  0
    5.9093   -0.8034    0.0000 C   0  0  0  0  0  0  0  0  0  0  0  0
    6.2113    1.1485    0.0000 C   0  0  0  0  0  0  0  0  0  0  0  0
    6.7343   -0.8034    0.0000 C   0  0  0  0  0  0  0  0  0  0  0  0
    4.7824   -0.5015    0.0000 C   0  0  0  0  0  0  0  0  0  0  0  0
    5.4968   -0.0890    0.0000 C   0  0  0  0  0  0  0  0  0  0  0  0
    5.4968    1.5610    0.0000 O   0  0  0  0  0  0  0  0  0  0  0  0
    6.9258    1.5610    0.0000 O   0  0  0  0  0  0  0  0  0  0  0  0
    7.1468   -0.0890    0.0000 O   0  0  0  0  0  0  0  0  0  0  0  0
    7.1468   -1.5179    0.0000 O   0  0  0  0  0  0  0  0  0  0  0  0
    4.7824   -1.3265    0.0000 O   0  0  0  0  0  0  0  0  0  0  0  0
    4.0679   -0.0890    0.0000 O   0  0  0  0  0  0  0  0  0  0  0  0
    5.0843    0.6255    0.0000 O   0  0  0  0  0  0  0  0  0  0  0  0
   -0.9484    1.7909    0.0000 Ca  0  0  0  0  0  0  0  0  0  0  0  0
    1.8286    0.4428    0.0000 Ca  0  0  0  0  0  0  0  0  0  0  0  0
   -2.3773    0.1409    0.0000 Ca  0  0  0  0  0  0  0  0  0  0  0  0
    0.0000    0.0000    0.0000 H   0  0  0  0  0  0  0  0  0  0  0  0
    0.0000    0.0000    0.0000 H   0  0  0  0  0  0  0  0  0  0  0  0
    0.0000    0.0000    0.0000 H   0  0  0  0  0  0  0  0  0  0  0  0
    0.0000    0.0000    0.0000 H   0  0  0  0  0  0  0  0  0  0  0  0
    0.0000    0.0000    0.0000 H   0  0  0  0  0  0  0  0  0  0  0  0
    0.0000    0.0000    0.0000 H   0  0  0  0  0  0  0  0  0  0  0  0
    0.0000    0.0000    0.0000 H   0  0  0  0  0  0  0  0  0  0  0  0
    0.0000    0.0000    0.0000 H   0  0  0  0  0  0  0  0  0  0  0  0
    0.0000    0.0000    0.0000 H   0  0  0  0  0  0  0  0  0  0  0  0
    0.0000    0.0000    0.0000 H   0  0  0  0  0  0  0  0  0  0  0  0
  3  1  1  0
  4  2  1  0
  6  1  1  0
  6  2  1  0
  6  5  1  0
  7  3  2  0
  8  3  1  0
  9  4  2  0
 10  4  1  0
 11  5  2  0
 12  5  1  0
 13  6  1  0
 16 14  1  0
 17 15  1  0
 19 14  1  0
 19 15  1  0
 19 18  1  0
 20 16  2  0
 21 16  1  0
 22 17  2  0
 23 17  1  0
 24 18  2  0
 25 18  1  0
 26 19  1  0
  1 30  1  0
  1 31  1  0
  2 32  1  0
  2 33  1  0
 13 34  1  0
 14 35  1  0
 14 36  1  0
 15 37  1  0
 15 38  1  0
 26 39  1  0
M  CHG  8   8  -1  10  -1  12  -1  21  -1  23  -1  25  -1  27   2  28   2
M  CHG  1  29   2
M  END
>  <ALOGPS_LOGP>  (1) 
0.13

>  <ALOGPS_LOGS>  (1) 
-2.08

>  <ALOGPS_SOLUBILITY>  (1) 
4.12e+00 g/l

>  <DATABASE_ID>  (1) 
DB11093

>  <DATABASE_NAME>  (1) 
drugbank

>  <DRUGBANK_ID>  (1) 
DB11093

>  <DRUG_GROUPS>  (1) 
approved

>  <EXACT_MASS>  (1) 
497.8948277

>  <FORMULA>  (1) 
C12H10Ca3O14

>  <GENERIC_NAME>  (1) 
Calcium Citrate

>  <INCHI_IDENTIFIER>  (1) 
InChI=1S/2C6H8O7.3Ca/c2*7-3(8)1-6(13,5(11)12)2-4(9)10;;;/h2*13H,1-2H2,(H,7,8)(H,9,10)(H,11,12);;;/q;;3*+2/p-6

>  <INCHI_KEY>  (1) 
FNAQSUUGMSOBHW-UHFFFAOYSA-H

>  <JCHEM_ACCEPTOR_COUNT>  (1) 
7

>  <JCHEM_ATOM_COUNT>  (1) 
39

>  <JCHEM_AVERAGE_POLARIZABILITY>  (1) 
14.227786958814349

>  <JCHEM_BIOAVAILABILITY>  (1) 
1

>  <JCHEM_DONOR_COUNT>  (1) 
1

>  <JCHEM_FORMAL_CHARGE>  (1) 
0

>  <JCHEM_GHOSE_FILTER>  (1) 
0

>  <JCHEM_IUPAC>  (1) 
tricalcium bis(2-hydroxypropane-1,2,3-tricarboxylate)

>  <JCHEM_LOGP>  (1) 
-1.3226874519999998

>  <JCHEM_MDDR_LIKE_RULE>  (1) 
0

>  <JCHEM_NUMBER_OF_RINGS>  (1) 
0

>  <JCHEM_PHYSIOLOGICAL_CHARGE>  (1) 
-3

>  <JCHEM_PKA>  (1) 
4.674836176324

>  <JCHEM_PKA_STRONGEST_ACIDIC>  (1) 
3.0479515131680732

>  <JCHEM_PKA_STRONGEST_BASIC>  (1) 
-4.185693450231931

>  <JCHEM_POLAR_SURFACE_AREA>  (1) 
140.61999999999998

>  <JCHEM_REFRACTIVITY>  (1) 
68.13520000000001

>  <JCHEM_ROTATABLE_BOND_COUNT>  (1) 
10

>  <JCHEM_RULE_OF_FIVE>  (1) 
1

>  <JCHEM_TRADITIONAL_IUPAC>  (1) 
tricalcium dicitrate

>  <JCHEM_VEBER_RULE>  (1) 
0

>  <MOLECULAR_WEIGHT>  (1) 
498.432

>  <PRODUCTS>  (1) 
Calcium Citrate Tab 350mg; Calcium Citrate W Vitamin D Tab; CitraNatal 90 DHA; CitraNatal B-Calm; CitraNatal DHA; CitraNatal Harmony 3.0; CitraNatal Rx; Citracal Liquitab - Evt; Citranatal Harmony 2.1; Foltabs Prenatal; INATAL Ultra; Prenaissance Plus; Prenatal Chelated Mineral; Usana Active Calcium; VP CH Plus; VP CH Ultra; Vp-CH-pnv; Zatean-CH

>  <SALTS>  (1) 
Calcium citrate tetrahydrate

>  <SMILES>  (1) 
[Ca++].[Ca++].[Ca++].OC(CC([O-])=O)(CC([O-])=O)C([O-])=O.OC(CC([O-])=O)(CC([O-])=O)C([O-])=O

>  <SYNONYMS>  (1) 
tricalcium citrate

$$$$
